! OpenFAST Deterministic Wind File
#
# Comment lines begin with "!" or "#" or "%", then the data lines must contain the following columns:
#
# If there are only 8 columns, upflow is assumed to be 0.
#
# Parameters are interpolated linearly between time steps; using nearest neighbor before the first time 
# listed in this file and after the last time listed in the file. 
#
! Time     Wind    Wind    Vertical    Horiz.      Pwr.Law     Lin.Vert.   Gust     Upflow
!          Speed   Dir     Speed       Shear       Vert.Shr    Shear       Speed    Angle 
! (sec)    (m/s)   (Deg)   (m/s)                                            (m/s)   (deg)
0    4.794930667300912    0    0    0    0    0    0    0    
1    5.379350377738102    0    0    0    0    0    0    0    
2    5.071842513204999    0    0    0    0    0    0    0    
3    4.711391519746943    0    0    0    0    0    0    0    
4    4.987484222265189    0    0    0    0    0    0    0    
5    5.469154142304884    0    0    0    0    0    0    0    
6    5.164023225707709    0    0    0    0    0    0    0    
7    4.984871722826057    0    0    0    0    0    0    0    
8    4.86694217487485    0    0    0    0    0    0    0    
9    5.045534376516691    0    0    0    0    0    0    0    
10    5.035049917453555    0    0    0    0    0    0    0    
11    5.027789448091882    0    0    0    0    0    0    0    
12    5.479282571051706    0    0    0    0    0    0    0    
13    4.93293972803276    0    0    0    0    0    0    0    
14    4.8321355333282066    0    0    0    0    0    0    0    
15    5.003729785227824    0    0    0    0    0    0    0    
16    4.578339233492035    0    0    0    0    0    0    0    
17    4.943616845243609    0    0    0    0    0    0    0    
18    5.279648417892574    0    0    0    0    0    0    0    
19    4.467918693777841    0    0    0    0    0    0    0    
20    4.676871608071157    0    0    0    0    0    0    0    
21    5.036253656524612    0    0    0    0    0    0    0    
22    5.1868456381444235    0    0    0    0    0    0    0    
23    5.071589409146622    0    0    0    0    0    0    0    
24    5.011788132861511    0    0    0    0    0    0    0    
25    4.771954962309239    0    0    0    0    0    0    0    
26    5.270411432994882    0    0    0    0    0    0    0    
27    4.912970722727814    0    0    0    0    0    0    0    
28    5.2819426961954505    0    0    0    0    0    0    0    
29    4.919560213039836    0    0    0    0    0    0    0    
30    5.4944184475131    0    0    0    0    0    0    0    
31    4.752693905803554    0    0    0    0    0    0    0    
32    4.746484519231986    0    0    0    0    0    0    0    
33    5.21396985288417    0    0    0    0    0    0    0    
34    4.771101341041103    0    0    0    0    0    0    0    
35    4.683807933687338    0    0    0    0    0    0    0    
36    4.698809854972844    0    0    0    0    0    0    0    
37    5.174091370304396    0    0    0    0    0    0    0    
38    4.744496129323586    0    0    0    0    0    0    0    
39    5.072707424204519    0    0    0    0    0    0    0    
40    4.788493315998674    0    0    0    0    0    0    0    
41    4.638333800763372    0    0    0    0    0    0    0    
42    4.9346988384445085    0    0    0    0    0    0    0    
43    5.163139617218816    0    0    0    0    0    0    0    
44    5.170109075053103    0    0    0    0    0    0    0    
45    5.004876422264048    0    0    0    0    0    0    0    
46    4.537946109979703    0    0    0    0    0    0    0    
47    4.920017949684544    0    0    0    0    0    0    0    
48    5.086323597917315    0    0    0    0    0    0    0    
49    5.36186255648586    0    0    0    0    0    0    0    
50    4.71619676323328    0    0    0    0    0    0    0    
51    4.824165943631534    0    0    0    0    0    0    0    
52    5.111604186485071    0    0    0    0    0    0    0    
53    5.240386443463005    0    0    0    0    0    0    0    
54    4.836528086868533    0    0    0    0    0    0    0    
55    4.799379160337193    0    0    0    0    0    0    0    
56    4.722814380254369    0    0    0    0    0    0    0    
57    4.996197263938022    0    0    0    0    0    0    0    
58    4.894836269980118    0    0    0    0    0    0    0    
59    5.405905839636371    0    0    0    0    0    0    0    
60    4.8199722951045265    0    0    0    0    0    0    0    
61    5.141876650050008    0    0    0    0    0    0    0    
62    5.099213335949391    0    0    0    0    0    0    0    
63    5.3047531588028525    0    0    0    0    0    0    0    
64    5.08247629491128    0    0    0    0    0    0    0    
65    4.994886736041035    0    0    0    0    0    0    0    
66    4.930160268931362    0    0    0    0    0    0    0    
67    5.098823363318424    0    0    0    0    0    0    0    
68    4.761538372616524    0    0    0    0    0    0    0    
69    4.838198885011696    0    0    0    0    0    0    0    
70    5.239057602469666    0    0    0    0    0    0    0    
71    4.9440680639852985    0    0    0    0    0    0    0    
72    5.2866566612187045    0    0    0    0    0    0    0    
73    4.896189779885327    0    0    0    0    0    0    0    
74    5.096671535125786    0    0    0    0    0    0    0    
75    5.096526148703048    0    0    0    0    0    0    0    
76    4.820726212703356    0    0    0    0    0    0    0    
77    5.152626991205852    0    0    0    0    0    0    0    
78    5.250682997798151    0    0    0    0    0    0    0    
79    5.046501189768355    0    0    0    0    0    0    0    
80    4.522012420289533    0    0    0    0    0    0    0    
81    5.329933866796936    0    0    0    0    0    0    0    
82    4.8149754415578805    0    0    0    0    0    0    0    
83    5.108976225950143    0    0    0    0    0    0    0    
84    4.6815415868905434    0    0    0    0    0    0    0    
85    4.9889731870416485    0    0    0    0    0    0    0    
86    5.220895115561154    0    0    0    0    0    0    0    
87    5.0213683338157695    0    0    0    0    0    0    0    
88    4.805411159704406    0    0    0    0    0    0    0    
89    4.9242576713831525    0    0    0    0    0    0    0    
90    5.074025409700162    0    0    0    0    0    0    0    
91    5.284119428598688    0    0    0    0    0    0    0    
92    4.735034971135126    0    0    0    0    0    0    0    
93    4.871005947955751    0    0    0    0    0    0    0    
94    4.83371498167276    0    0    0    0    0    0    0    
95    5.180373454348116    0    0    0    0    0    0    0    
96    4.74486551696752    0    0    0    0    0    0    0    
97    4.76399320134059    0    0    0    0    0    0    0    
98    5.113688513373531    0    0    0    0    0    0    0    
99    4.516432722730427    0    0    0    0    0    0    0    
100    5.022000413329793    0    0    0    0    0    0    0    
101    5.165730861031271    0    0    0    0    0    0    0    
102    4.934006951180643    0    0    0    0    0    0    0    
103    4.876753224120261    0    0    0    0    0    0    0    
104    5.2532092668105985    0    0    0    0    0    0    0    
105    5.032693563163742    0    0    0    0    0    0    0    
106    4.7981251313548325    0    0    0    0    0    0    0    
107    4.8991577694401665    0    0    0    0    0    0    0    
108    5.098671674804156    0    0    0    0    0    0    0    
109    5.0568480202021275    0    0    0    0    0    0    0    
110    5.013529805171509    0    0    0    0    0    0    0    
111    4.738762616858314    0    0    0    0    0    0    0    
112    5.224248061861565    0    0    0    0    0    0    0    
113    5.270406850709809    0    0    0    0    0    0    0    
114    5.011871144671713    0    0    0    0    0    0    0    
115    5.013817150830108    0    0    0    0    0    0    0    
116    4.9291352446040335    0    0    0    0    0    0    0    
117    5.3594403710715195    0    0    0    0    0    0    0    
118    5.0285241395904094    0    0    0    0    0    0    0    
119    5.089089303033889    0    0    0    0    0    0    0    
120    4.824918176998684    0    0    0    0    0    0    0    
121    5.227675211212158    0    0    0    0    0    0    0    
122    4.8394038905709325    0    0    0    0    0    0    0    
123    5.222735317964686    0    0    0    0    0    0    0    
124    5.253737264428211    0    0    0    0    0    0    0    
125    5.4387332345545545    0    0    0    0    0    0    0    
126    4.7664098913878075    0    0    0    0    0    0    0    
127    4.973101638012833    0    0    0    0    0    0    0    
128    5.007992701603989    0    0    0    0    0    0    0    
129    5.228928158669979    0    0    0    0    0    0    0    
130    5.15259286719404    0    0    0    0    0    0    0    
131    5.408023749466287    0    0    0    0    0    0    0    
132    5.142463529704124    0    0    0    0    0    0    0    
133    5.154866195355671    0    0    0    0    0    0    0    
134    4.94421737072206    0    0    0    0    0    0    0    
135    4.830560928371858    0    0    0    0    0    0    0    
136    5.168997421485654    0    0    0    0    0    0    0    
137    4.942285315806078    0    0    0    0    0    0    0    
138    5.26570381206331    0    0    0    0    0    0    0    
139    5.082277787563105    0    0    0    0    0    0    0    
140    4.772554246983576    0    0    0    0    0    0    0    
141    5.023788910561531    0    0    0    0    0    0    0    
142    4.7561821225561225    0    0    0    0    0    0    0    
143    5.281854476453642    0    0    0    0    0    0    0    
144    4.714731240432242    0    0    0    0    0    0    0    
145    4.9449683732879235    0    0    0    0    0    0    0    
146    4.902997873305662    0    0    0    0    0    0    0    
147    4.687190669860108    0    0    0    0    0    0    0    
148    4.825925364710625    0    0    0    0    0    0    0    
149    5.061258543846261    0    0    0    0    0    0    0    
150    5.052317058262983    0    0    0    0    0    0    0    
151    5.563866275354145    0    0    0    0    0    0    0    
152    5.0021355221468635    0    0    0    0    0    0    0    
153    5.108049945971524    0    0    0    0    0    0    0    
154    4.697525192215968    0    0    0    0    0    0    0    
155    5.0174774497877035    0    0    0    0    0    0    0    
156    5.222090010862295    0    0    0    0    0    0    0    
157    4.821004990171747    0    0    0    0    0    0    0    
158    4.793512547214758    0    0    0    0    0    0    0    
159    5.300077242949814    0    0    0    0    0    0    0    
160    5.180839868773762    0    0    0    0    0    0    0    
161    4.985317775    0    0    0    0    0    0    0    
162    5.120169069037697    0    0    0    0    0    0    0    
163    5.112913785174371    0    0    0    0    0    0    0    
164    5.146552809513992    0    0    0    0    0    0    0    
165    5.317289323863112    0    0    0    0    0    0    0    
166    4.820191201608341    0    0    0    0    0    0    0    
167    4.809777500777634    0    0    0    0    0    0    0    
168    4.96743501441615    0    0    0    0    0    0    0    
169    4.96933059552414    0    0    0    0    0    0    0    
170    4.837782402471644    0    0    0    0    0    0    0    
171    5.309210951733932    0    0    0    0    0    0    0    
172    5.188793246285941    0    0    0    0    0    0    0    
173    5.0581358908329666    0    0    0    0    0    0    0    
174    4.912729183121856    0    0    0    0    0    0    0    
175    5.028659120202297    0    0    0    0    0    0    0    
176    5.2905157224069566    0    0    0    0    0    0    0    
177    5.125089404583108    0    0    0    0    0    0    0    
178    4.724118366022483    0    0    0    0    0    0    0    
179    4.769468712212108    0    0    0    0    0    0    0    
180    5.118004684189585    0    0    0    0    0    0    0    
181    5.038494649706144    0    0    0    0    0    0    0    
182    5.165437759496157    0    0    0    0    0    0    0    
183    4.995715062344595    0    0    0    0    0    0    0    
184    4.922378733002974    0    0    0    0    0    0    0    
185    5.024392610159101    0    0    0    0    0    0    0    
186    4.812915665630999    0    0    0    0    0    0    0    
187    5.030008578701835    0    0    0    0    0    0    0    
188    5.198148974450538    0    0    0    0    0    0    0    
189    5.096884013719788    0    0    0    0    0    0    0    
190    5.178145230275526    0    0    0    0    0    0    0    
191    4.991599838139457    0    0    0    0    0    0    0    
192    4.720629517688751    0    0    0    0    0    0    0    
193    5.204636931457113    0    0    0    0    0    0    0    
194    5.040103518067781    0    0    0    0    0    0    0    
195    4.842310773360999    0    0    0    0    0    0    0    
196    5.0279412094102325    0    0    0    0    0    0    0    
197    4.687900407414999    0    0    0    0    0    0    0    
198    5.417501340688955    0    0    0    0    0    0    0    
199    4.8433667464297345    0    0    0    0    0    0    0    
200    4.884409929416098    0    0    0    0    0    0    0    
201    5.083000166600109    0    0    0    0    0    0    0    
202    5.033488197641768    0    0    0    0    0    0    0    
203    4.848293116855967    0    0    0    0    0    0    0    
204    4.974280836160364    0    0    0    0    0    0    0    
205    5.4342597364130825    0    0    0    0    0    0    0    
206    4.795329953291514    0    0    0    0    0    0    0    
207    5.014628135082097    0    0    0    0    0    0    0    
208    5.007794207898702    0    0    0    0    0    0    0    
209    5.0001665620625815    0    0    0    0    0    0    0    
210    5.135194515215611    0    0    0    0    0    0    0    
211    5.155493504168513    0    0    0    0    0    0    0    
212    4.916768312043008    0    0    0    0    0    0    0    
213    5.03068583938334    0    0    0    0    0    0    0    
214    5.190426725388677    0    0    0    0    0    0    0    
215    5.24407396599308    0    0    0    0    0    0    0    
216    5.188019380973895    0    0    0    0    0    0    0    
217    4.895714560037178    0    0    0    0    0    0    0    
218    4.904000684639868    0    0    0    0    0    0    0    
219    5.066619565840454    0    0    0    0    0    0    0    
220    5.354423345978899    0    0    0    0    0    0    0    
221    4.624183557572532    0    0    0    0    0    0    0    
222    5.353201537900809    0    0    0    0    0    0    0    
223    5.081539231542699    0    0    0    0    0    0    0    
224    5.078538362352086    0    0    0    0    0    0    0    
225    4.729903294340543    0    0    0    0    0    0    0    
226    4.972481527835791    0    0    0    0    0    0    0    
227    5.014031923849468    0    0    0    0    0    0    0    
228    5.162093180554127    0    0    0    0    0    0    0    
229    5.38342710010191    0    0    0    0    0    0    0    
230    4.916414399437818    0    0    0    0    0    0    0    
231    4.9948526063460585    0    0    0    0    0    0    0    
232    4.633976929954819    0    0    0    0    0    0    0    
233    4.940716857442742    0    0    0    0    0    0    0    
234    5.109622731842268    0    0    0    0    0    0    0    
235    4.872493072944757    0    0    0    0    0    0    0    
236    5.275022159455925    0    0    0    0    0    0    0    
237    5.041366903543694    0    0    0    0    0    0    0    
238    4.887028189206971    0    0    0    0    0    0    0    
239    5.121972354267287    0    0    0    0    0    0    0    
240    4.62616934311837    0    0    0    0    0    0    0    
241    4.957257625586068    0    0    0    0    0    0    0    
242    4.794929712265318    0    0    0    0    0    0    0    
243    5.010282280368383    0    0    0    0    0    0    0    
244    4.861409797807084    0    0    0    0    0    0    0    
245    4.938762680990523    0    0    0    0    0    0    0    
246    5.103378020099141    0    0    0    0    0    0    0    
247    4.817221866368996    0    0    0    0    0    0    0    
248    5.0106396717098685    0    0    0    0    0    0    0    
249    4.709037848204197    0    0    0    0    0    0    0    
250    4.8243633155633106    0    0    0    0    0    0    0    
251    4.841606762814178    0    0    0    0    0    0    0    
252    5.230998300230153    0    0    0    0    0    0    0    
253    4.713464512436473    0    0    0    0    0    0    0    
254    4.603544095654047    0    0    0    0    0    0    0    
255    4.742537241174634    0    0    0    0    0    0    0    
256    4.946463764876021    0    0    0    0    0    0    0    
257    5.2728991060517    0    0    0    0    0    0    0    
258    5.117597599102706    0    0    0    0    0    0    0    
259    4.973700918823607    0    0    0    0    0    0    0    
260    5.323785980515188    0    0    0    0    0    0    0    
261    4.993760488117891    0    0    0    0    0    0    0    
262    4.771247524349791    0    0    0    0    0    0    0    
263    4.845200096998572    0    0    0    0    0    0    0    
264    4.609017212789749    0    0    0    0    0    0    0    
265    4.954517995568893    0    0    0    0    0    0    0    
266    4.5571821796735374    0    0    0    0    0    0    0    
267    5.022430231314332    0    0    0    0    0    0    0    
268    5.169294671328167    0    0    0    0    0    0    0    
269    5.020798931283767    0    0    0    0    0    0    0    
270    5.199475549493553    0    0    0    0    0    0    0    
271    5.022433970070138    0    0    0    0    0    0    0    
272    4.7802968716932055    0    0    0    0    0    0    0    
273    4.718537283660817    0    0    0    0    0    0    0    
274    4.908434313028172    0    0    0    0    0    0    0    
275    5.087346225504681    0    0    0    0    0    0    0    
276    4.854064038202032    0    0    0    0    0    0    0    
277    4.978742419784313    0    0    0    0    0    0    0    
278    4.832617002563857    0    0    0    0    0    0    0    
279    5.183645568903025    0    0    0    0    0    0    0    
280    5.105226432863719    0    0    0    0    0    0    0    
281    5.037727953208146    0    0    0    0    0    0    0    
282    4.782012316466309    0    0    0    0    0    0    0    
283    5.044591157111689    0    0    0    0    0    0    0    
284    5.240199144417883    0    0    0    0    0    0    0    
285    5.197898235223391    0    0    0    0    0    0    0    
286    4.7831309092096985    0    0    0    0    0    0    0    
287    4.868953770967177    0    0    0    0    0    0    0    
288    5.1344881797966995    0    0    0    0    0    0    0    
289    4.764419420621059    0    0    0    0    0    0    0    
290    4.784187420821239    0    0    0    0    0    0    0    
291    4.8598218347447775    0    0    0    0    0    0    0    
292    5.151052906547323    0    0    0    0    0    0    0    
293    5.060007707130159    0    0    0    0    0    0    0    
294    4.979460953668262    0    0    0    0    0    0    0    
295    5.172236367642753    0    0    0    0    0    0    0    
296    4.833827826502835    0    0    0    0    0    0    0    
297    4.785342279896394    0    0    0    0    0    0    0    
298    5.225332615528322    0    0    0    0    0    0    0    
299    4.8509041957363745    0    0    0    0    0    0    0    
300    4.876824949194143    0    0    0    0    0    0    0    
301    5.123886467682957    0    0    0    0    0    0    0    
302    4.869309679637064    0    0    0    0    0    0    0    
303    5.084197573997988    0    0    0    0    0    0    0    
304    5.272282863820242    0    0    0    0    0    0    0    
305    4.93210988845396    0    0    0    0    0    0    0    
306    4.832521374085531    0    0    0    0    0    0    0    
307    5.374022967869599    0    0    0    0    0    0    0    
308    5.098046355903684    0    0    0    0    0    0    0    
309    5.252363568560589    0    0    0    0    0    0    0    
310    5.043964279184836    0    0    0    0    0    0    0    
311    4.9575058055506975    0    0    0    0    0    0    0    
312    5.058131621086326    0    0    0    0    0    0    0    
313    5.169337612568442    0    0    0    0    0    0    0    
314    4.978698087468015    0    0    0    0    0    0    0    
315    5.103135655071789    0    0    0    0    0    0    0    
316    5.0020825976043435    0    0    0    0    0    0    0    
317    4.568096425621311    0    0    0    0    0    0    0    
318    5.077046240007689    0    0    0    0    0    0    0    
319    5.158743525662186    0    0    0    0    0    0    0    
320    4.434495394392056    0    0    0    0    0    0    0    
321    4.840039417718878    0    0    0    0    0    0    0    
322    5.083642319036963    0    0    0    0    0    0    0    
323    4.590930956321489    0    0    0    0    0    0    0    
324    4.739104817151911    0    0    0    0    0    0    0    
325    5.092797696353899    0    0    0    0    0    0    0    
326    4.793752648448576    0    0    0    0    0    0    0    
327    5.001812836889819    0    0    0    0    0    0    0    
328    5.1807522936788155    0    0    0    0    0    0    0    
329    4.8473865645752126    0    0    0    0    0    0    0    
330    4.960548802519982    0    0    0    0    0    0    0    
331    5.12516154647681    0    0    0    0    0    0    0    
332    4.835568185086729    0    0    0    0    0    0    0    
333    4.862346898068274    0    0    0    0    0    0    0    
334    4.9577847831124915    0    0    0    0    0    0    0    
335    4.728202285927776    0    0    0    0    0    0    0    
336    4.799001081999746    0    0    0    0    0    0    0    
337    5.144016767727563    0    0    0    0    0    0    0    
338    5.18074122960519    0    0    0    0    0    0    0    
339    5.068109116719245    0    0    0    0    0    0    0    
340    4.874566950774755    0    0    0    0    0    0    0    
341    4.828250801584063    0    0    0    0    0    0    0    
342    5.098863935450053    0    0    0    0    0    0    0    
343    5.187292139735177    0    0    0    0    0    0    0    
344    5.159385218515467    0    0    0    0    0    0    0    
345    5.00564348838794    0    0    0    0    0    0    0    
346    5.115794768313153    0    0    0    0    0    0    0    
347    5.280094232419293    0    0    0    0    0    0    0    
348    4.977210048024956    0    0    0    0    0    0    0    
349    5.072405711629431    0    0    0    0    0    0    0    
350    4.782553851775019    0    0    0    0    0    0    0    
351    4.958681847704291    0    0    0    0    0    0    0    
352    4.958301153133686    0    0    0    0    0    0    0    
353    4.6154713235644085    0    0    0    0    0    0    0    
354    5.049954495773457    0    0    0    0    0    0    0    
355    4.9129470763998055    0    0    0    0    0    0    0    
356    5.343986297756743    0    0    0    0    0    0    0    
357    5.148516232399074    0    0    0    0    0    0    0    
358    4.969954564757237    0    0    0    0    0    0    0    
359    4.808512017734888    0    0    0    0    0    0    0    
360    5.144391085582082    0    0    0    0    0    0    0    
361    4.948283538441844    0    0    0    0    0    0    0    
362    4.992080418048186    0    0    0    0    0    0    0    
363    5.2536494364676525    0    0    0    0    0    0    0    
364    5.1545515376854025    0    0    0    0    0    0    0    
365    4.774181359162492    0    0    0    0    0    0    0    
366    5.01146927925678    0    0    0    0    0    0    0    
367    4.8550335680326935    0    0    0    0    0    0    0    
368    5.036849395563412    0    0    0    0    0    0    0    
369    4.902758826275467    0    0    0    0    0    0    0    
370    4.976112291455839    0    0    0    0    0    0    0    
371    4.914201930764452    0    0    0    0    0    0    0    
372    5.080671259172424    0    0    0    0    0    0    0    
373    4.5359601424244715    0    0    0    0    0    0    0    
374    5.145489349077512    0    0    0    0    0    0    0    
375    5.279021214077895    0    0    0    0    0    0    0    
376    5.010841548862501    0    0    0    0    0    0    0    
377    4.910486498371584    0    0    0    0    0    0    0    
378    5.096338718460774    0    0    0    0    0    0    0    
379    5.00867048868539    0    0    0    0    0    0    0    
380    5.003898550926235    0    0    0    0    0    0    0    
381    4.7232277915087355    0    0    0    0    0    0    0    
382    5.092519184274279    0    0    0    0    0    0    0    
383    5.1815941532066265    0    0    0    0    0    0    0    
384    4.698471114513206    0    0    0    0    0    0    0    
385    4.616608956576984    0    0    0    0    0    0    0    
386    5.0419967593109245    0    0    0    0    0    0    0    
387    5.533677110138851    0    0    0    0    0    0    0    
388    4.641189780435384    0    0    0    0    0    0    0    
389    5.193750894578021    0    0    0    0    0    0    0    
390    4.921715430955237    0    0    0    0    0    0    0    
391    4.54232912892345    0    0    0    0    0    0    0    
392    4.922773828095541    0    0    0    0    0    0    0    
393    5.162781209752514    0    0    0    0    0    0    0    
394    5.156913089834215    0    0    0    0    0    0    0    
395    5.03879598647126    0    0    0    0    0    0    0    
396    4.896332946280788    0    0    0    0    0    0    0    
397    5.260407849527706    0    0    0    0    0    0    0    
398    4.887984129434954    0    0    0    0    0    0    0    
399    5.026573668476225    0    0    0    0    0    0    0    
400    5.184911614060931    0    0    0    0    0    0    0    
401    5.234969194371043    0    0    0    0    0    0    0    
402    5.161925050908745    0    0    0    0    0    0    0    
403    5.153735204550814    0    0    0    0    0    0    0    
404    5.207486644996762    0    0    0    0    0    0    0    
405    4.963125318889035    0    0    0    0    0    0    0    
406    5.274290580091645    0    0    0    0    0    0    0    
407    4.740555449537605    0    0    0    0    0    0    0    
408    5.067775446011736    0    0    0    0    0    0    0    
409    4.894477988032081    0    0    0    0    0    0    0    
410    5.00746380265494    0    0    0    0    0    0    0    
411    4.69308306310832    0    0    0    0    0    0    0    
412    5.023885766931645    0    0    0    0    0    0    0    
413    5.262890406832378    0    0    0    0    0    0    0    
414    4.568498686678479    0    0    0    0    0    0    0    
415    4.86729904495878    0    0    0    0    0    0    0    
416    5.241895099698156    0    0    0    0    0    0    0    
417    4.840775414216853    0    0    0    0    0    0    0    
418    5.054378516927135    0    0    0    0    0    0    0    
419    5.034177802785474    0    0    0    0    0    0    0    
420    4.903237569342175    0    0    0    0    0    0    0    
421    5.028868891255408    0    0    0    0    0    0    0    
422    5.334508083601123    0    0    0    0    0    0    0    
423    5.408989914510325    0    0    0    0    0    0    0    
424    4.708159341805745    0    0    0    0    0    0    0    
425    5.280583634277779    0    0    0    0    0    0    0    
426    5.1816881713719445    0    0    0    0    0    0    0    
427    4.910297306552554    0    0    0    0    0    0    0    
428    5.330243378253401    0    0    0    0    0    0    0    
429    4.891379020476521    0    0    0    0    0    0    0    
430    4.911455507575151    0    0    0    0    0    0    0    
431    5.172136885178373    0    0    0    0    0    0    0    
432    4.998315341646547    0    0    0    0    0    0    0    
433    4.9398831088473765    0    0    0    0    0    0    0    
434    5.007003585759118    0    0    0    0    0    0    0    
435    4.7999638900689074    0    0    0    0    0    0    0    
436    4.7792986936521755    0    0    0    0    0    0    0    
437    5.001037948840923    0    0    0    0    0    0    0    
438    4.80839820137053    0    0    0    0    0    0    0    
439    5.122943139245684    0    0    0    0    0    0    0    
440    5.170467945037068    0    0    0    0    0    0    0    
441    4.718300489861251    0    0    0    0    0    0    0    
442    5.602178374499247    0    0    0    0    0    0    0    
443    4.8555187472574755    0    0    0    0    0    0    0    
444    4.818875495629573    0    0    0    0    0    0    0    
445    5.073445525454517    0    0    0    0    0    0    0    
446    5.291914086286855    0    0    0    0    0    0    0    
447    5.236464235955745    0    0    0    0    0    0    0    
448    5.087293641785443    0    0    0    0    0    0    0    
449    5.2172914057269395    0    0    0    0    0    0    0    
450    5.140782444394443    0    0    0    0    0    0    0    
451    4.928334641120686    0    0    0    0    0    0    0    
452    5.26869783176574    0    0    0    0    0    0    0    
453    4.815296703782425    0    0    0    0    0    0    0    
454    5.3814977180652726    0    0    0    0    0    0    0    
455    5.052420689013346    0    0    0    0    0    0    0    
456    5.274254084598116    0    0    0    0    0    0    0    
457    5.146374462915762    0    0    0    0    0    0    0    
458    5.062436057870607    0    0    0    0    0    0    0    
459    5.0623498926933745    0    0    0    0    0    0    0    