! OpenFAST Deterministic Wind File
#
# Comment lines begin with "!" or "#" or "%", then the data lines must contain the following columns:
#
# If there are only 8 columns, upflow is assumed to be 0.
#
# Parameters are interpolated linearly between time steps; using nearest neighbor before the first time 
# listed in this file and after the last time listed in the file. 
#
! Time     Wind    Wind    Vertical    Horiz.      Pwr.Law     Lin.Vert.   Gust     Upflow
!          Speed   Dir     Speed       Shear       Vert.Shr    Shear       Speed    Angle 
! (sec)    (m/s)   (Deg)   (m/s)                                            (m/s)   (deg)
0    20.250671704106605    0    0    0    0    0    0    0    
1    20.03498327340001    0    0    0    0    0    0    0    
2    20.018551983800407    0    0    0    0    0    0    0    
3    20.09423214534298    0    0    0    0    0    0    0    
4    20.182164980511693    0    0    0    0    0    0    0    
5    19.948762319549896    0    0    0    0    0    0    0    
6    20.04843304472405    0    0    0    0    0    0    0    
7    19.628056215825875    0    0    0    0    0    0    0    
8    19.926060770421834    0    0    0    0    0    0    0    
9    20.006738284216947    0    0    0    0    0    0    0    
10    19.856974794847773    0    0    0    0    0    0    0    
11    19.882777926986506    0    0    0    0    0    0    0    
12    19.97570048776375    0    0    0    0    0    0    0    
13    20.412606038338417    0    0    0    0    0    0    0    
14    20.101891530729173    0    0    0    0    0    0    0    
15    20.077955891529857    0    0    0    0    0    0    0    
16    19.958424901759923    0    0    0    0    0    0    0    
17    19.908582155013885    0    0    0    0    0    0    0    
18    20.102131302605386    0    0    0    0    0    0    0    
19    20.065159372464723    0    0    0    0    0    0    0    
20    19.87213825501083    0    0    0    0    0    0    0    
21    20.124475087963518    0    0    0    0    0    0    0    
22    20.361222736906207    0    0    0    0    0    0    0    
23    19.849551907714222    0    0    0    0    0    0    0    
24    19.689047880194465    0    0    0    0    0    0    0    
25    20.148221607476838    0    0    0    0    0    0    0    
26    20.116566975210738    0    0    0    0    0    0    0    
27    20.216485474480145    0    0    0    0    0    0    0    
28    20.117650081306106    0    0    0    0    0    0    0    
29    20.026825689247687    0    0    0    0    0    0    0    
30    20.074934517652817    0    0    0    0    0    0    0    
31    19.955095998803863    0    0    0    0    0    0    0    
32    20.0599026048681    0    0    0    0    0    0    0    
33    20.285682642532837    0    0    0    0    0    0    0    
34    20.127632744410697    0    0    0    0    0    0    0    
35    20.087340867848695    0    0    0    0    0    0    0    
36    19.878576725173804    0    0    0    0    0    0    0    
37    19.742204597301573    0    0    0    0    0    0    0    
38    19.849665482201438    0    0    0    0    0    0    0    
39    19.614085214793878    0    0    0    0    0    0    0    
40    20.0633637374966    0    0    0    0    0    0    0    
41    20.40250275945608    0    0    0    0    0    0    0    
42    20.134938909124617    0    0    0    0    0    0    0    
43    20.013651782436455    0    0    0    0    0    0    0    
44    19.989398974451337    0    0    0    0    0    0    0    
45    20.108058032405772    0    0    0    0    0    0    0    
46    19.95573003148751    0    0    0    0    0    0    0    
47    19.656571557913892    0    0    0    0    0    0    0    
48    20.08432269867992    0    0    0    0    0    0    0    
49    19.700818795136723    0    0    0    0    0    0    0    
50    20.141969521537952    0    0    0    0    0    0    0    
51    19.891625007909433    0    0    0    0    0    0    0    
52    19.79958336667001    0    0    0    0    0    0    0    
53    20.089667454981964    0    0    0    0    0    0    0    
54    20.016700651084548    0    0    0    0    0    0    0    
55    20.184376993091902    0    0    0    0    0    0    0    
56    19.739296314162644    0    0    0    0    0    0    0    
57    20.08760701663571    0    0    0    0    0    0    0    
58    20.109475121348847    0    0    0    0    0    0    0    
59    20.209930303950472    0    0    0    0    0    0    0    
60    20.319698861307867    0    0    0    0    0    0    0    
61    20.1909055131198    0    0    0    0    0    0    0    
62    19.72118414563895    0    0    0    0    0    0    0    
63    19.773106088849588    0    0    0    0    0    0    0    
64    20.170529757584795    0    0    0    0    0    0    0    
65    19.99276835992741    0    0    0    0    0    0    0    
66    20.27494626237194    0    0    0    0    0    0    0    
67    19.901521617513357    0    0    0    0    0    0    0    
68    19.884146058241107    0    0    0    0    0    0    0    
69    19.853350316201457    0    0    0    0    0    0    0    
70    19.904208822956917    0    0    0    0    0    0    0    
71    20.055809282433124    0    0    0    0    0    0    0    
72    19.592921051267577    0    0    0    0    0    0    0    
73    19.9391766964279    0    0    0    0    0    0    0    
74    19.662993481863765    0    0    0    0    0    0    0    
75    19.4419511260531    0    0    0    0    0    0    0    
76    19.84877715535289    0    0    0    0    0    0    0    
77    19.842280329634434    0    0    0    0    0    0    0    
78    20.20579838212847    0    0    0    0    0    0    0    
79    20.014192711950002    0    0    0    0    0    0    0    
80    20.045557531301363    0    0    0    0    0    0    0    
81    20.20517809026728    0    0    0    0    0    0    0    
82    20.276174810477787    0    0    0    0    0    0    0    
83    20.05352105977147    0    0    0    0    0    0    0    
84    20.350846054826597    0    0    0    0    0    0    0    
85    20.210142771451405    0    0    0    0    0    0    0    
86    20.05815113311141    0    0    0    0    0    0    0    
87    19.779386807891797    0    0    0    0    0    0    0    
88    20.002302477810105    0    0    0    0    0    0    0    
89    19.71273337694519    0    0    0    0    0    0    0    
90    20.103380298682474    0    0    0    0    0    0    0    
91    19.954087309367306    0    0    0    0    0    0    0    
92    20.12336135474711    0    0    0    0    0    0    0    
93    20.098212523985485    0    0    0    0    0    0    0    
94    20.183936894211858    0    0    0    0    0    0    0    
95    20.038649080116354    0    0    0    0    0    0    0    
96    19.928178305596393    0    0    0    0    0    0    0    
97    20.154296393473278    0    0    0    0    0    0    0    
98    20.131009155604072    0    0    0    0    0    0    0    
99    19.832075727107878    0    0    0    0    0    0    0    
100    19.672229741290977    0    0    0    0    0    0    0    
101    19.582497537761643    0    0    0    0    0    0    0    
102    19.83318304417178    0    0    0    0    0    0    0    
103    20.133800457863643    0    0    0    0    0    0    0    
104    19.666863111364137    0    0    0    0    0    0    0    
105    20.124428840816385    0    0    0    0    0    0    0    
106    19.946100188640667    0    0    0    0    0    0    0    
107    19.850698759420098    0    0    0    0    0    0    0    
108    20.08112049419738    0    0    0    0    0    0    0    
109    19.811438754296116    0    0    0    0    0    0    0    
110    19.921003300126326    0    0    0    0    0    0    0    
111    20.13770242265115    0    0    0    0    0    0    0    
112    20.017699885431906    0    0    0    0    0    0    0    
113    19.80220613414252    0    0    0    0    0    0    0    
114    20.190007553990327    0    0    0    0    0    0    0    
115    20.032381277534025    0    0    0    0    0    0    0    
116    20.253718615559986    0    0    0    0    0    0    0    
117    19.804695371441277    0    0    0    0    0    0    0    
118    20.01541120642277    0    0    0    0    0    0    0    
119    20.041586387455247    0    0    0    0    0    0    0    
120    20.21913392711976    0    0    0    0    0    0    0    
121    19.994430518685995    0    0    0    0    0    0    0    
122    19.713808264756683    0    0    0    0    0    0    0    
123    20.121459449583845    0    0    0    0    0    0    0    
124    20.20602546916252    0    0    0    0    0    0    0    
125    19.960695465404317    0    0    0    0    0    0    0    
126    20.292858489918245    0    0    0    0    0    0    0    
127    20.111972932040388    0    0    0    0    0    0    0    
128    19.989291597341563    0    0    0    0    0    0    0    
129    20.04399221290938    0    0    0    0    0    0    0    
130    19.88622550424539    0    0    0    0    0    0    0    
131    19.977179904216744    0    0    0    0    0    0    0    
132    20.345376350345994    0    0    0    0    0    0    0    
133    19.759630972618908    0    0    0    0    0    0    0    
134    20.123947045389695    0    0    0    0    0    0    0    
135    19.80830275469659    0    0    0    0    0    0    0    
136    19.974989570416188    0    0    0    0    0    0    0    
137    20.069905139207535    0    0    0    0    0    0    0    
138    20.073816558206214    0    0    0    0    0    0    0    
139    20.047774414068158    0    0    0    0    0    0    0    
140    19.675146025955293    0    0    0    0    0    0    0    
141    19.788145272605878    0    0    0    0    0    0    0    
142    19.983971309093658    0    0    0    0    0    0    0    
143    20.119767771334818    0    0    0    0    0    0    0    
144    20.01822451771688    0    0    0    0    0    0    0    
145    20.026999737707172    0    0    0    0    0    0    0    
146    20.2913556409587    0    0    0    0    0    0    0    
147    20.243864609363488    0    0    0    0    0    0    0    
148    20.070430094069422    0    0    0    0    0    0    0    
149    20.10103637214508    0    0    0    0    0    0    0    
150    20.12092672807245    0    0    0    0    0    0    0    
151    20.10671453437183    0    0    0    0    0    0    0    
152    20.060874107166846    0    0    0    0    0    0    0    
153    19.77612738009932    0    0    0    0    0    0    0    
154    19.998122735392922    0    0    0    0    0    0    0    
155    20.120382186099384    0    0    0    0    0    0    0    
156    20.17189530564392    0    0    0    0    0    0    0    
157    19.915208354451085    0    0    0    0    0    0    0    
158    20.14064275436074    0    0    0    0    0    0    0    
159    19.86568848811707    0    0    0    0    0    0    0    
160    20.241042901674035    0    0    0    0    0    0    0    
161    19.884116563734043    0    0    0    0    0    0    0    
162    19.93665292165728    0    0    0    0    0    0    0    
163    19.96686811233083    0    0    0    0    0    0    0    
164    19.878976001728063    0    0    0    0    0    0    0    
165    20.05208158467962    0    0    0    0    0    0    0    
166    19.99610712775198    0    0    0    0    0    0    0    
167    20.14803233761608    0    0    0    0    0    0    0    
168    20.135435915638425    0    0    0    0    0    0    0    
169    19.773475801932435    0    0    0    0    0    0    0    
170    20.127156251997288    0    0    0    0    0    0    0    
171    19.99389978321441    0    0    0    0    0    0    0    
172    20.00703340905841    0    0    0    0    0    0    0    
173    20.043604080758865    0    0    0    0    0    0    0    
174    19.94632929306623    0    0    0    0    0    0    0    
175    20.040799530166208    0    0    0    0    0    0    0    
176    19.809807941445527    0    0    0    0    0    0    0    
177    20.000983683554914    0    0    0    0    0    0    0    
178    19.66034635259628    0    0    0    0    0    0    0    
179    20.078882859357268    0    0    0    0    0    0    0    
180    19.87194074033201    0    0    0    0    0    0    0    
181    19.99336992953459    0    0    0    0    0    0    0    
182    19.395756901706648    0    0    0    0    0    0    0    
183    19.729759229324223    0    0    0    0    0    0    0    
184    19.983632438157258    0    0    0    0    0    0    0    
185    19.938135862093322    0    0    0    0    0    0    0    
186    19.977392995354098    0    0    0    0    0    0    0    
187    20.123148772974446    0    0    0    0    0    0    0    
188    19.914365693941132    0    0    0    0    0    0    0    
189    20.09299171001743    0    0    0    0    0    0    0    
190    19.88815776753322    0    0    0    0    0    0    0    
191    19.707838297001015    0    0    0    0    0    0    0    
192    19.917670863152143    0    0    0    0    0    0    0    
193    20.113653109135935    0    0    0    0    0    0    0    
194    20.22989206711048    0    0    0    0    0    0    0    
195    19.92872885835048    0    0    0    0    0    0    0    
196    19.743314526678073    0    0    0    0    0    0    0    
197    19.949565266437222    0    0    0    0    0    0    0    
198    20.500164306486788    0    0    0    0    0    0    0    
199    19.851313525221123    0    0    0    0    0    0    0    
200    19.670522886403422    0    0    0    0    0    0    0    
201    19.9997182571755    0    0    0    0    0    0    0    
202    20.26246861278225    0    0    0    0    0    0    0    
203    19.93360004091328    0    0    0    0    0    0    0    
204    20.025388841050187    0    0    0    0    0    0    0    
205    19.98756701032478    0    0    0    0    0    0    0    
206    20.04806814018169    0    0    0    0    0    0    0    
207    19.901459150201795    0    0    0    0    0    0    0    
208    19.774971420321222    0    0    0    0    0    0    0    
209    20.162998171070956    0    0    0    0    0    0    0    
210    20.160477861273144    0    0    0    0    0    0    0    
211    19.694869899917173    0    0    0    0    0    0    0    
212    19.72279778726961    0    0    0    0    0    0    0    
213    20.125968515472728    0    0    0    0    0    0    0    
214    19.864588470848172    0    0    0    0    0    0    0    
215    20.164352628112017    0    0    0    0    0    0    0    
216    19.572268159252083    0    0    0    0    0    0    0    
217    20.074359944957347    0    0    0    0    0    0    0    
218    20.143224550863085    0    0    0    0    0    0    0    
219    19.915160114069472    0    0    0    0    0    0    0    
220    19.53013943568158    0    0    0    0    0    0    0    
221    20.54927901867815    0    0    0    0    0    0    0    
222    19.59092440535668    0    0    0    0    0    0    0    
223    19.483571528018047    0    0    0    0    0    0    0    
224    20.223021715306484    0    0    0    0    0    0    0    
225    20.222446420357546    0    0    0    0    0    0    0    
226    20.322962990997734    0    0    0    0    0    0    0    
227    20.05569350102676    0    0    0    0    0    0    0    
228    19.7765572885237    0    0    0    0    0    0    0    
229    19.747736160095084    0    0    0    0    0    0    0    
230    20.154294294128356    0    0    0    0    0    0    0    
231    19.847069935490115    0    0    0    0    0    0    0    
232    20.085085448648588    0    0    0    0    0    0    0    
233    19.74653536523463    0    0    0    0    0    0    0    
234    20.01072893136527    0    0    0    0    0    0    0    
235    20.361333726691104    0    0    0    0    0    0    0    
236    19.74458337038102    0    0    0    0    0    0    0    
237    19.829566811499323    0    0    0    0    0    0    0    
238    19.922326561230463    0    0    0    0    0    0    0    
239    20.48546927630118    0    0    0    0    0    0    0    
240    20.188100887837994    0    0    0    0    0    0    0    
241    20.00255853683589    0    0    0    0    0    0    0    
242    20.0424861242201    0    0    0    0    0    0    0    
243    20.037182952140697    0    0    0    0    0    0    0    
244    20.025435313695308    0    0    0    0    0    0    0    
245    19.763968994792428    0    0    0    0    0    0    0    
246    19.632796826332914    0    0    0    0    0    0    0    
247    19.927657013126606    0    0    0    0    0    0    0    
248    20.065931441873573    0    0    0    0    0    0    0    
249    19.944489790957658    0    0    0    0    0    0    0    
250    20.19781557403281    0    0    0    0    0    0    0    
251    19.841833326044362    0    0    0    0    0    0    0    
252    19.958080672728148    0    0    0    0    0    0    0    
253    20.11945141380964    0    0    0    0    0    0    0    
254    20.462387038466975    0    0    0    0    0    0    0    
255    19.667325808388874    0    0    0    0    0    0    0    
256    20.17994523188492    0    0    0    0    0    0    0    
257    20.092177523359933    0    0    0    0    0    0    0    
258    19.827466383485433    0    0    0    0    0    0    0    
259    19.584171987783478    0    0    0    0    0    0    0    
260    19.844098074267578    0    0    0    0    0    0    0    
261    19.835113130804263    0    0    0    0    0    0    0    
262    20.21514278615935    0    0    0    0    0    0    0    
263    19.693099590350407    0    0    0    0    0    0    0    
264    19.873100764202754    0    0    0    0    0    0    0    
265    20.043000913960622    0    0    0    0    0    0    0    
266    20.38695597686823    0    0    0    0    0    0    0    
267    20.101373282627762    0    0    0    0    0    0    0    
268    20.08386419677364    0    0    0    0    0    0    0    
269    20.040051509549482    0    0    0    0    0    0    0    
270    20.125705727459508    0    0    0    0    0    0    0    
271    19.795433067181207    0    0    0    0    0    0    0    
272    19.759073461108663    0    0    0    0    0    0    0    
273    19.79419878991767    0    0    0    0    0    0    0    
274    19.783657083591336    0    0    0    0    0    0    0    
275    19.90471338021181    0    0    0    0    0    0    0    
276    20.360160843674613    0    0    0    0    0    0    0    
277    20.007390543698186    0    0    0    0    0    0    0    
278    20.082745803660487    0    0    0    0    0    0    0    
279    20.097627492074466    0    0    0    0    0    0    0    
280    20.093066074405655    0    0    0    0    0    0    0    
281    19.709526512020872    0    0    0    0    0    0    0    
282    19.726590149051567    0    0    0    0    0    0    0    
283    19.694870865684475    0    0    0    0    0    0    0    
284    20.180316262426516    0    0    0    0    0    0    0    
285    19.907136582216324    0    0    0    0    0    0    0    
286    19.87281706194302    0    0    0    0    0    0    0    
287    19.730088331148927    0    0    0    0    0    0    0    
288    19.824488317508848    0    0    0    0    0    0    0    
289    19.723195453668282    0    0    0    0    0    0    0    
290    19.87354047146505    0    0    0    0    0    0    0    
291    20.383429953211596    0    0    0    0    0    0    0    
292    19.65070167169628    0    0    0    0    0    0    0    
293    20.3537295039294    0    0    0    0    0    0    0    
294    19.84294632445923    0    0    0    0    0    0    0    
295    20.16585622009187    0    0    0    0    0    0    0    
296    20.058975161674176    0    0    0    0    0    0    0    
297    20.28393707270469    0    0    0    0    0    0    0    
298    19.819337787896625    0    0    0    0    0    0    0    
299    19.75736406405949    0    0    0    0    0    0    0    
300    19.74404319612207    0    0    0    0    0    0    0    
301    19.833194002957352    0    0    0    0    0    0    0    
302    19.79258562624789    0    0    0    0    0    0    0    
303    20.05675804582125    0    0    0    0    0    0    0    
304    19.967387368892602    0    0    0    0    0    0    0    
305    19.761415358973167    0    0    0    0    0    0    0    
306    19.657253548370644    0    0    0    0    0    0    0    
307    19.964689983158582    0    0    0    0    0    0    0    
308    20.156081335232265    0    0    0    0    0    0    0    
309    19.798729382215498    0    0    0    0    0    0    0    
310    19.911597189033614    0    0    0    0    0    0    0    
311    19.694314767724975    0    0    0    0    0    0    0    
312    20.04555540415925    0    0    0    0    0    0    0    
313    19.90644886195529    0    0    0    0    0    0    0    
314    20.07249869673956    0    0    0    0    0    0    0    
315    19.864933489056988    0    0    0    0    0    0    0    
316    19.88294069814445    0    0    0    0    0    0    0    
317    19.883962768457913    0    0    0    0    0    0    0    
318    19.928374697924642    0    0    0    0    0    0    0    
319    19.97251779065083    0    0    0    0    0    0    0    
320    20.15708233040493    0    0    0    0    0    0    0    
321    19.7590599948763    0    0    0    0    0    0    0    
322    19.784243464466222    0    0    0    0    0    0    0    
323    20.128263256320132    0    0    0    0    0    0    0    
324    19.915484442943026    0    0    0    0    0    0    0    
325    20.192601495966816    0    0    0    0    0    0    0    
326    19.966752243278634    0    0    0    0    0    0    0    
327    20.09007779703066    0    0    0    0    0    0    0    
328    20.02419173493697    0    0    0    0    0    0    0    
329    20.052418950001023    0    0    0    0    0    0    0    
330    20.352146713967297    0    0    0    0    0    0    0    
331    20.065873239892767    0    0    0    0    0    0    0    
332    19.675921980416923    0    0    0    0    0    0    0    
333    19.70057192774223    0    0    0    0    0    0    0    
334    20.135426312512006    0    0    0    0    0    0    0    
335    19.7890941308695    0    0    0    0    0    0    0    
336    19.829434891830743    0    0    0    0    0    0    0    
337    19.534043207776598    0    0    0    0    0    0    0    
338    19.717775419190666    0    0    0    0    0    0    0    
339    20.30750632626184    0    0    0    0    0    0    0    
340    19.71573500468528    0    0    0    0    0    0    0    
341    19.98984119284239    0    0    0    0    0    0    0    
342    20.009640528869944    0    0    0    0    0    0    0    
343    19.812961806069186    0    0    0    0    0    0    0    
344    19.86412516099356    0    0    0    0    0    0    0    
345    19.88555925010309    0    0    0    0    0    0    0    
346    20.270625696857728    0    0    0    0    0    0    0    
347    20.18825813835778    0    0    0    0    0    0    0    
348    20.035175066868884    0    0    0    0    0    0    0    
349    19.80791654217304    0    0    0    0    0    0    0    
350    19.842752072635378    0    0    0    0    0    0    0    
351    20.179264702329593    0    0    0    0    0    0    0    
352    19.754750557344405    0    0    0    0    0    0    0    
353    20.19671526581386    0    0    0    0    0    0    0    
354    20.031661804762635    0    0    0    0    0    0    0    
355    19.73151580447323    0    0    0    0    0    0    0    
356    19.912842904934973    0    0    0    0    0    0    0    
357    19.815793613194607    0    0    0    0    0    0    0    
358    19.985938980256137    0    0    0    0    0    0    0    
359    19.96097090268262    0    0    0    0    0    0    0    
360    19.95459216058899    0    0    0    0    0    0    0    
361    19.806459444798218    0    0    0    0    0    0    0    
362    20.05506543299584    0    0    0    0    0    0    0    
363    20.102873502908686    0    0    0    0    0    0    0    
364    19.863042267743616    0    0    0    0    0    0    0    
365    19.8376540244635    0    0    0    0    0    0    0    
366    20.3282583283746    0    0    0    0    0    0    0    
367    19.973394897986555    0    0    0    0    0    0    0    
368    20.22313346056129    0    0    0    0    0    0    0    
369    20.232179477974054    0    0    0    0    0    0    0    
370    19.787923551793902    0    0    0    0    0    0    0    
371    20.201444784817255    0    0    0    0    0    0    0    
372    19.997199181495752    0    0    0    0    0    0    0    
373    19.986246103884284    0    0    0    0    0    0    0    
374    20.002208183034867    0    0    0    0    0    0    0    
375    20.132834602208582    0    0    0    0    0    0    0    
376    19.903370211386186    0    0    0    0    0    0    0    
377    19.75699445602929    0    0    0    0    0    0    0    
378    19.90099879883224    0    0    0    0    0    0    0    
379    20.111052352931445    0    0    0    0    0    0    0    
380    20.08128440595106    0    0    0    0    0    0    0    
381    19.801706630597813    0    0    0    0    0    0    0    
382    20.137004135105624    0    0    0    0    0    0    0    
383    20.180156755620544    0    0    0    0    0    0    0    
384    19.83449954390238    0    0    0    0    0    0    0    
385    19.504194363313072    0    0    0    0    0    0    0    
386    19.78006702161903    0    0    0    0    0    0    0    
387    20.142844254985615    0    0    0    0    0    0    0    
388    19.989792040973832    0    0    0    0    0    0    0    
389    20.286647943189628    0    0    0    0    0    0    0    
390    20.565995310171036    0    0    0    0    0    0    0    
391    20.05246313916556    0    0    0    0    0    0    0    
392    19.76322058570858    0    0    0    0    0    0    0    
393    19.9314214181315    0    0    0    0    0    0    0    
394    19.768359729596135    0    0    0    0    0    0    0    
395    19.904358910608856    0    0    0    0    0    0    0    
396    20.160364336180184    0    0    0    0    0    0    0    
397    20.28804850135156    0    0    0    0    0    0    0    
398    19.937829166566562    0    0    0    0    0    0    0    
399    19.810241807996555    0    0    0    0    0    0    0    
400    20.143132628035797    0    0    0    0    0    0    0    
401    20.151780231990944    0    0    0    0    0    0    0    
402    19.904315568632516    0    0    0    0    0    0    0    
403    20.00324504684611    0    0    0    0    0    0    0    
404    19.37305895628264    0    0    0    0    0    0    0    
405    20.07398912942339    0    0    0    0    0    0    0    
406    19.9203627953234    0    0    0    0    0    0    0    
407    20.348588097719382    0    0    0    0    0    0    0    
408    20.037781474802134    0    0    0    0    0    0    0    
409    19.991095157654144    0    0    0    0    0    0    0    
410    20.167560447885734    0    0    0    0    0    0    0    
411    19.933443022261248    0    0    0    0    0    0    0    
412    20.29427970222635    0    0    0    0    0    0    0    
413    20.06376360137554    0    0    0    0    0    0    0    
414    20.108433100619003    0    0    0    0    0    0    0    
415    19.455865024222035    0    0    0    0    0    0    0    
416    19.99363880941904    0    0    0    0    0    0    0    
417    20.114496349813738    0    0    0    0    0    0    0    
418    20.100019658126584    0    0    0    0    0    0    0    
419    19.969752928526702    0    0    0    0    0    0    0    
420    19.907994055593296    0    0    0    0    0    0    0    
421    20.033504514566374    0    0    0    0    0    0    0    
422    20.008680507246662    0    0    0    0    0    0    0    
423    20.00050045703092    0    0    0    0    0    0    0    
424    19.86548473906211    0    0    0    0    0    0    0    
425    20.182102195264992    0    0    0    0    0    0    0    
426    20.001873936747085    0    0    0    0    0    0    0    
427    20.215271146654434    0    0    0    0    0    0    0    
428    19.732388933041268    0    0    0    0    0    0    0    
429    20.478092078719882    0    0    0    0    0    0    0    
430    19.808584364519056    0    0    0    0    0    0    0    
431    19.9728778802495    0    0    0    0    0    0    0    
432    19.543065050345525    0    0    0    0    0    0    0    
433    20.141715281804032    0    0    0    0    0    0    0    
434    19.94078968702127    0    0    0    0    0    0    0    
435    20.032468652729378    0    0    0    0    0    0    0    
436    20.221061029277077    0    0    0    0    0    0    0    
437    19.990264365209686    0    0    0    0    0    0    0    
438    20.318157547063333    0    0    0    0    0    0    0    
439    19.915062676413097    0    0    0    0    0    0    0    
440    20.26199518711918    0    0    0    0    0    0    0    
441    20.07961944915315    0    0    0    0    0    0    0    
442    19.67763004004493    0    0    0    0    0    0    0    
443    19.93341978639692    0    0    0    0    0    0    0    
444    20.57246575027914    0    0    0    0    0    0    0    
445    20.215061359967518    0    0    0    0    0    0    0    
446    20.11550145766327    0    0    0    0    0    0    0    
447    19.956990282648597    0    0    0    0    0    0    0    
448    20.21533947400689    0    0    0    0    0    0    0    
449    20.168190039616288    0    0    0    0    0    0    0    
450    19.84295143316557    0    0    0    0    0    0    0    
451    20.100051352328908    0    0    0    0    0    0    0    
452    20.145841365402298    0    0    0    0    0    0    0    
453    20.380336526547318    0    0    0    0    0    0    0    
454    19.888463332556764    0    0    0    0    0    0    0    