! OpenFAST Deterministic Wind File
#
# Comment lines begin with "!" or "#" or "%", then the data lines must contain the following columns:
#
# If there are only 8 columns, upflow is assumed to be 0.
#
# Parameters are interpolated linearly between time steps; using nearest neighbor before the first time 
# listed in this file and after the last time listed in the file. 
#
! Time     Wind    Wind    Vertical    Horiz.      Pwr.Law     Lin.Vert.   Gust     Upflow
!          Speed   Dir     Speed       Shear       Vert.Shr    Shear       Speed    Angle 
! (sec)    (m/s)   (Deg)   (m/s)                                            (m/s)   (deg)
0    9.84574959064103    0    0    0    0    0    0    0    
1    10.116343646952052    0    0    0    0    0    0    0    
2    10.07522246206337    0    0    0    0    0    0    0    
3    9.76355506855405    0    0    0    0    0    0    0    
4    10.441210715774004    0    0    0    0    0    0    0    
5    9.9222756435837    0    0    0    0    0    0    0    
6    9.954260053691096    0    0    0    0    0    0    0    
7    9.752820785931942    0    0    0    0    0    0    0    
8    9.351642897355926    0    0    0    0    0    0    0    
9    9.976555315269689    0    0    0    0    0    0    0    
10    10.226514386095086    0    0    0    0    0    0    0    
11    9.97779263752871    0    0    0    0    0    0    0    
12    10.228566944883003    0    0    0    0    0    0    0    
13    9.827391078890429    0    0    0    0    0    0    0    
14    10.689440317032627    0    0    0    0    0    0    0    
15    10.15558438555468    0    0    0    0    0    0    0    
16    10.100192219781958    0    0    0    0    0    0    0    
17    9.639562278665274    0    0    0    0    0    0    0    
18    10.341172330507883    0    0    0    0    0    0    0    
19    10.152541433444892    0    0    0    0    0    0    0    
20    9.872426753384625    0    0    0    0    0    0    0    
21    10.491902322216474    0    0    0    0    0    0    0    
22    9.74436806520679    0    0    0    0    0    0    0    
23    9.62531574468229    0    0    0    0    0    0    0    
24    10.058627239035374    0    0    0    0    0    0    0    
25    9.648085595438138    0    0    0    0    0    0    0    
26    9.764003407092249    0    0    0    0    0    0    0    
27    9.98182256208931    0    0    0    0    0    0    0    
28    9.903611086436513    0    0    0    0    0    0    0    
29    10.145578026499427    0    0    0    0    0    0    0    
30    10.143181628168131    0    0    0    0    0    0    0    
31    9.982686178631827    0    0    0    0    0    0    0    
32    9.820635752595669    0    0    0    0    0    0    0    
33    9.607732383253582    0    0    0    0    0    0    0    
34    9.70673176111835    0    0    0    0    0    0    0    
35    10.01585378586185    0    0    0    0    0    0    0    
36    9.603490302956615    0    0    0    0    0    0    0    
37    10.005732316031121    0    0    0    0    0    0    0    
38    9.686124993812015    0    0    0    0    0    0    0    
39    9.589103381408279    0    0    0    0    0    0    0    
40    10.160408724373138    0    0    0    0    0    0    0    
41    9.922060660505107    0    0    0    0    0    0    0    
42    9.617693272444209    0    0    0    0    0    0    0    
43    9.798535013470941    0    0    0    0    0    0    0    
44    9.590324066105802    0    0    0    0    0    0    0    
45    9.78462136653912    0    0    0    0    0    0    0    
46    9.91725340482277    0    0    0    0    0    0    0    
47    9.558776373015647    0    0    0    0    0    0    0    
48    10.230021656167002    0    0    0    0    0    0    0    
49    9.985136933136577    0    0    0    0    0    0    0    
50    9.749265254153716    0    0    0    0    0    0    0    
51    9.864173521623517    0    0    0    0    0    0    0    
52    10.144413416955258    0    0    0    0    0    0    0    
53    9.630732719681587    0    0    0    0    0    0    0    
54    9.921939570097347    0    0    0    0    0    0    0    
55    9.62024996976624    0    0    0    0    0    0    0    
56    10.016737794729083    0    0    0    0    0    0    0    
57    10.018053114236455    0    0    0    0    0    0    0    
58    10.132752271824891    0    0    0    0    0    0    0    
59    9.776613201879996    0    0    0    0    0    0    0    
60    10.098536843813434    0    0    0    0    0    0    0    
61    9.950780535108231    0    0    0    0    0    0    0    
62    9.934515858317525    0    0    0    0    0    0    0    
63    10.223185321021726    0    0    0    0    0    0    0    
64    10.04641993699776    0    0    0    0    0    0    0    
65    9.96933653535277    0    0    0    0    0    0    0    
66    9.876479336623724    0    0    0    0    0    0    0    
67    10.11018133170544    0    0    0    0    0    0    0    
68    9.652851928364043    0    0    0    0    0    0    0    
69    9.8703009522414    0    0    0    0    0    0    0    
70    10.019175422561073    0    0    0    0    0    0    0    
71    9.501270015066796    0    0    0    0    0    0    0    
72    9.85603448761078    0    0    0    0    0    0    0    
73    9.63860121073652    0    0    0    0    0    0    0    
74    10.069508680552785    0    0    0    0    0    0    0    
75    9.733698996189595    0    0    0    0    0    0    0    
76    10.11371165279105    0    0    0    0    0    0    0    
77    9.909330963413561    0    0    0    0    0    0    0    
78    9.803286478250353    0    0    0    0    0    0    0    
79    9.662267955138837    0    0    0    0    0    0    0    
80    9.985491919208153    0    0    0    0    0    0    0    
81    9.729456416648647    0    0    0    0    0    0    0    
82    9.965429822864223    0    0    0    0    0    0    0    
83    9.775658260828097    0    0    0    0    0    0    0    
84    9.668028694982656    0    0    0    0    0    0    0    
85    9.991043709179909    0    0    0    0    0    0    0    
86    9.869662603101425    0    0    0    0    0    0    0    
87    9.830722531555276    0    0    0    0    0    0    0    
88    9.793418891693426    0    0    0    0    0    0    0    
89    9.948150883937931    0    0    0    0    0    0    0    
90    9.737282466860163    0    0    0    0    0    0    0    
91    9.74744868417742    0    0    0    0    0    0    0    
92    9.91551535786898    0    0    0    0    0    0    0    
93    9.719411320795547    0    0    0    0    0    0    0    
94    9.930074542683135    0    0    0    0    0    0    0    
95    9.809803411411316    0    0    0    0    0    0    0    
96    10.003993416861196    0    0    0    0    0    0    0    
97    10.10115758131074    0    0    0    0    0    0    0    
98    9.6320088386362    0    0    0    0    0    0    0    
99    9.533387297900823    0    0    0    0    0    0    0    
100    9.837626688471348    0    0    0    0    0    0    0    
101    9.809626010058135    0    0    0    0    0    0    0    
102    9.868691280250342    0    0    0    0    0    0    0    
103    10.399823659987401    0    0    0    0    0    0    0    
104    9.591121889694925    0    0    0    0    0    0    0    
105    9.97817018843629    0    0    0    0    0    0    0    
106    9.85201000143501    0    0    0    0    0    0    0    
107    9.767814681851922    0    0    0    0    0    0    0    
108    10.05414741418723    0    0    0    0    0    0    0    
109    10.128987576043427    0    0    0    0    0    0    0    
110    9.840915248802878    0    0    0    0    0    0    0    
111    9.674420611075375    0    0    0    0    0    0    0    
112    9.911462179745271    0    0    0    0    0    0    0    
113    10.079992389323749    0    0    0    0    0    0    0    
114    9.904440391742591    0    0    0    0    0    0    0    
115    10.35891400844734    0    0    0    0    0    0    0    
116    9.75103413467783    0    0    0    0    0    0    0    
117    10.005779851839424    0    0    0    0    0    0    0    
118    10.272484717303092    0    0    0    0    0    0    0    
119    10.436675835106879    0    0    0    0    0    0    0    
120    9.529725717422318    0    0    0    0    0    0    0    
121    9.56403058821453    0    0    0    0    0    0    0    
122    10.177394130635843    0    0    0    0    0    0    0    
123    10.100002204081235    0    0    0    0    0    0    0    
124    9.96866507141221    0    0    0    0    0    0    0    
125    9.969248524396379    0    0    0    0    0    0    0    
126    9.706982654019646    0    0    0    0    0    0    0    
127    10.097817717134678    0    0    0    0    0    0    0    
128    9.327427107823782    0    0    0    0    0    0    0    
129    9.837037509716318    0    0    0    0    0    0    0    
130    10.09344597051541    0    0    0    0    0    0    0    
131    10.122692726340533    0    0    0    0    0    0    0    
132    9.938848653627307    0    0    0    0    0    0    0    
133    9.490558919907347    0    0    0    0    0    0    0    
134    9.798206864230192    0    0    0    0    0    0    0    
135    10.310955045411886    0    0    0    0    0    0    0    
136    9.99978731829535    0    0    0    0    0    0    0    
137    9.927378697094909    0    0    0    0    0    0    0    
138    10.12136177267638    0    0    0    0    0    0    0    
139    9.9714485798036    0    0    0    0    0    0    0    
140    9.654091310340386    0    0    0    0    0    0    0    
141    9.889927050382992    0    0    0    0    0    0    0    
142    9.93174447081196    0    0    0    0    0    0    0    
143    10.036701483018291    0    0    0    0    0    0    0    
144    10.1547496010966    0    0    0    0    0    0    0    
145    9.91193412179234    0    0    0    0    0    0    0    
146    9.643740222523917    0    0    0    0    0    0    0    
147    9.717884772536104    0    0    0    0    0    0    0    
148    9.763390087878415    0    0    0    0    0    0    0    
149    9.961246711255978    0    0    0    0    0    0    0    
150    9.790441918612025    0    0    0    0    0    0    0    
151    10.170019419850307    0    0    0    0    0    0    0    
152    9.776403949760065    0    0    0    0    0    0    0    
153    9.678996733140723    0    0    0    0    0    0    0    
154    9.606211116111018    0    0    0    0    0    0    0    
155    9.920849221712372    0    0    0    0    0    0    0    
156    10.208406056742554    0    0    0    0    0    0    0    
157    10.015487921872019    0    0    0    0    0    0    0    
158    9.636080136776428    0    0    0    0    0    0    0    
159    10.117867307938338    0    0    0    0    0    0    0    
160    9.85002129424818    0    0    0    0    0    0    0    
161    9.987466972834945    0    0    0    0    0    0    0    
162    10.030527672455678    0    0    0    0    0    0    0    
163    9.874371406842485    0    0    0    0    0    0    0    
164    10.106470477821784    0    0    0    0    0    0    0    
165    9.97702806862613    0    0    0    0    0    0    0    
166    10.187742681003687    0    0    0    0    0    0    0    
167    10.111529806778123    0    0    0    0    0    0    0    
168    9.98150128524199    0    0    0    0    0    0    0    
169    10.049157989439545    0    0    0    0    0    0    0    
170    9.908180578206458    0    0    0    0    0    0    0    
171    9.991734487990177    0    0    0    0    0    0    0    
172    9.823594150919297    0    0    0    0    0    0    0    
173    9.864199125317558    0    0    0    0    0    0    0    
174    9.760468943242076    0    0    0    0    0    0    0    
175    9.857755757515191    0    0    0    0    0    0    0    
176    9.90023508486197    0    0    0    0    0    0    0    
177    9.984762383968626    0    0    0    0    0    0    0    
178    9.99299321431438    0    0    0    0    0    0    0    
179    9.839491207241254    0    0    0    0    0    0    0    
180    10.394253700299346    0    0    0    0    0    0    0    
181    9.84242416443336    0    0    0    0    0    0    0    
182    9.761216840145932    0    0    0    0    0    0    0    
183    9.71503435901562    0    0    0    0    0    0    0    
184    10.01995409718586    0    0    0    0    0    0    0    
185    10.134854144259274    0    0    0    0    0    0    0    
186    9.726656839968628    0    0    0    0    0    0    0    
187    10.024321526050226    0    0    0    0    0    0    0    
188    10.06433458982297    0    0    0    0    0    0    0    
189    9.827221474324041    0    0    0    0    0    0    0    
190    9.906868685516136    0    0    0    0    0    0    0    
191    9.947822235583187    0    0    0    0    0    0    0    
192    9.822668053733148    0    0    0    0    0    0    0    
193    10.271292215900681    0    0    0    0    0    0    0    
194    9.676472233518846    0    0    0    0    0    0    0    
195    9.423441907871277    0    0    0    0    0    0    0    
196    10.16714150649201    0    0    0    0    0    0    0    
197    9.368233056909824    0    0    0    0    0    0    0    
198    9.960154895635487    0    0    0    0    0    0    0    
199    9.888136792917702    0    0    0    0    0    0    0    
200    9.776090483298086    0    0    0    0    0    0    0    
201    10.049670280491098    0    0    0    0    0    0    0    
202    10.041826285868877    0    0    0    0    0    0    0    
203    9.897886184153183    0    0    0    0    0    0    0    
204    9.85049050006972    0    0    0    0    0    0    0    
205    9.679707894737803    0    0    0    0    0    0    0    
206    10.018164158985968    0    0    0    0    0    0    0    
207    10.03236919091822    0    0    0    0    0    0    0    
208    9.75535952042963    0    0    0    0    0    0    0    
209    9.973408430860623    0    0    0    0    0    0    0    
210    10.322389717025896    0    0    0    0    0    0    0    
211    9.553910270453269    0    0    0    0    0    0    0    
212    9.469814409910008    0    0    0    0    0    0    0    
213    9.996194657403828    0    0    0    0    0    0    0    
214    10.065700657216958    0    0    0    0    0    0    0    
215    9.516287725472685    0    0    0    0    0    0    0    
216    9.91666497070261    0    0    0    0    0    0    0    
217    9.80241413866364    0    0    0    0    0    0    0    
218    10.135490738178028    0    0    0    0    0    0    0    
219    9.68210776898804    0    0    0    0    0    0    0    
220    9.499615604288326    0    0    0    0    0    0    0    
221    9.958636109217661    0    0    0    0    0    0    0    
222    9.50070411234761    0    0    0    0    0    0    0    
223    10.380329062444691    0    0    0    0    0    0    0    
224    9.585948222026285    0    0    0    0    0    0    0    
225    9.825933211462528    0    0    0    0    0    0    0    
226    10.261523627637654    0    0    0    0    0    0    0    
227    10.044748017228642    0    0    0    0    0    0    0    
228    9.912563427085585    0    0    0    0    0    0    0    
229    9.875029105317651    0    0    0    0    0    0    0    
230    10.183766671590783    0    0    0    0    0    0    0    
231    9.864560250978041    0    0    0    0    0    0    0    
232    10.134037749701394    0    0    0    0    0    0    0    
233    9.960023912149333    0    0    0    0    0    0    0    
234    9.735161318248574    0    0    0    0    0    0    0    
235    9.682296301086243    0    0    0    0    0    0    0    
236    10.060505025821767    0    0    0    0    0    0    0    
237    9.900688660796412    0    0    0    0    0    0    0    
238    9.884286097750085    0    0    0    0    0    0    0    
239    9.764019373914268    0    0    0    0    0    0    0    
240    10.161526998370505    0    0    0    0    0    0    0    
241    9.876668002756519    0    0    0    0    0    0    0    
242    10.07409855134759    0    0    0    0    0    0    0    
243    10.03657848007548    0    0    0    0    0    0    0    
244    9.924763626086047    0    0    0    0    0    0    0    
245    9.957459758671334    0    0    0    0    0    0    0    
246    9.514934163494173    0    0    0    0    0    0    0    
247    9.53341115534666    0    0    0    0    0    0    0    
248    9.693413404733525    0    0    0    0    0    0    0    
249    9.724471595669273    0    0    0    0    0    0    0    
250    9.90610374598485    0    0    0    0    0    0    0    
251    9.559250767107981    0    0    0    0    0    0    0    
252    9.805965469669731    0    0    0    0    0    0    0    
253    10.113404677394877    0    0    0    0    0    0    0    
254    9.660829597656724    0    0    0    0    0    0    0    
255    9.365628582785755    0    0    0    0    0    0    0    
256    10.25846251917258    0    0    0    0    0    0    0    
257    9.570207789419058    0    0    0    0    0    0    0    
258    9.806533739026277    0    0    0    0    0    0    0    
259    9.740186149420726    0    0    0    0    0    0    0    
260    10.080756456919543    0    0    0    0    0    0    0    
261    9.836549152117035    0    0    0    0    0    0    0    
262    9.841598757607697    0    0    0    0    0    0    0    
263    9.62224342537334    0    0    0    0    0    0    0    
264    9.874884345695591    0    0    0    0    0    0    0    
265    9.416758131249985    0    0    0    0    0    0    0    
266    9.78337412833918    0    0    0    0    0    0    0    
267    10.152663534438718    0    0    0    0    0    0    0    
268    9.873359054496564    0    0    0    0    0    0    0    
269    9.693997184311055    0    0    0    0    0    0    0    
270    9.97569129177953    0    0    0    0    0    0    0    
271    10.037508359806697    0    0    0    0    0    0    0    
272    9.770464835215105    0    0    0    0    0    0    0    
273    10.038448321788493    0    0    0    0    0    0    0    
274    9.772329784298432    0    0    0    0    0    0    0    
275    10.27987269271716    0    0    0    0    0    0    0    
276    10.01027986403796    0    0    0    0    0    0    0    
277    9.960250007875645    0    0    0    0    0    0    0    
278    10.104830128631663    0    0    0    0    0    0    0    
279    9.647582464928746    0    0    0    0    0    0    0    
280    10.098245582269362    0    0    0    0    0    0    0    
281    9.92773815649195    0    0    0    0    0    0    0    
282    9.846154814445647    0    0    0    0    0    0    0    
283    9.672423636463527    0    0    0    0    0    0    0    
284    9.89970139150138    0    0    0    0    0    0    0    
285    9.84730696340837    0    0    0    0    0    0    0    
286    10.6477377931995    0    0    0    0    0    0    0    
287    10.078781791087286    0    0    0    0    0    0    0    
288    9.733672626941996    0    0    0    0    0    0    0    
289    9.746749389241902    0    0    0    0    0    0    0    
290    9.977373915826252    0    0    0    0    0    0    0    
291    9.88193604928796    0    0    0    0    0    0    0    
292    10.065722417027828    0    0    0    0    0    0    0    
293    9.771322340989162    0    0    0    0    0    0    0    
294    9.720494731551828    0    0    0    0    0    0    0    
295    9.905433185265522    0    0    0    0    0    0    0    
296    9.73127028584711    0    0    0    0    0    0    0    
297    10.198365253689426    0    0    0    0    0    0    0    
298    9.67403356587763    0    0    0    0    0    0    0    
299    10.054326255885258    0    0    0    0    0    0    0    
300    9.968071571502424    0    0    0    0    0    0    0    
301    9.982170806057097    0    0    0    0    0    0    0    
302    9.88690179235115    0    0    0    0    0    0    0    
303    9.81298074114471    0    0    0    0    0    0    0    
304    9.776156022947204    0    0    0    0    0    0    0    
305    10.029033971627149    0    0    0    0    0    0    0    
306    10.02665391737471    0    0    0    0    0    0    0    
307    9.874092678941413    0    0    0    0    0    0    0    
308    9.839239207711026    0    0    0    0    0    0    0    
309    9.96260832357968    0    0    0    0    0    0    0    
310    10.033128365398643    0    0    0    0    0    0    0    
311    9.957341983426588    0    0    0    0    0    0    0    
312    9.7205857809213    0    0    0    0    0    0    0    
313    10.256269986538106    0    0    0    0    0    0    0    
314    9.770850263993646    0    0    0    0    0    0    0    
315    9.855068523324451    0    0    0    0    0    0    0    
316    9.784451688748241    0    0    0    0    0    0    0    
317    9.949795678836672    0    0    0    0    0    0    0    
318    10.01440766966521    0    0    0    0    0    0    0    
319    10.013250252382159    0    0    0    0    0    0    0    
320    10.063872983402138    0    0    0    0    0    0    0    
321    9.884479029852725    0    0    0    0    0    0    0    
322    9.91118831750816    0    0    0    0    0    0    0    
323    9.797966073972246    0    0    0    0    0    0    0    
324    10.096718738543894    0    0    0    0    0    0    0    
325    9.793877884115474    0    0    0    0    0    0    0    
326    9.510287715707966    0    0    0    0    0    0    0    
327    10.034193741323673    0    0    0    0    0    0    0    
328    9.827809003983564    0    0    0    0    0    0    0    
329    9.647954328792665    0    0    0    0    0    0    0    
330    9.742359932895344    0    0    0    0    0    0    0    
331    10.128888517182366    0    0    0    0    0    0    0    
332    10.00192009869583    0    0    0    0    0    0    0    
333    10.06296939594869    0    0    0    0    0    0    0    
334    10.263872401977148    0    0    0    0    0    0    0    
335    9.428333490980103    0    0    0    0    0    0    0    
336    10.300630611204033    0    0    0    0    0    0    0    
337    10.160348787288788    0    0    0    0    0    0    0    
338    9.808514293685764    0    0    0    0    0    0    0    
339    10.057621108401376    0    0    0    0    0    0    0    
340    9.687519926086669    0    0    0    0    0    0    0    
341    9.617544340675868    0    0    0    0    0    0    0    
342    9.654344152632763    0    0    0    0    0    0    0    
343    9.989088356095747    0    0    0    0    0    0    0    
344    9.803971701413994    0    0    0    0    0    0    0    
345    10.000896959291563    0    0    0    0    0    0    0    
346    10.079039591389744    0    0    0    0    0    0    0    
347    9.847158147894538    0    0    0    0    0    0    0    
348    9.632838991456047    0    0    0    0    0    0    0    
349    10.102573281748763    0    0    0    0    0    0    0    
350    10.008639805055747    0    0    0    0    0    0    0    
351    9.949217179179767    0    0    0    0    0    0    0    
352    9.98988056628084    0    0    0    0    0    0    0    
353    10.080884080303134    0    0    0    0    0    0    0    
354    9.832238814823477    0    0    0    0    0    0    0    
355    9.626775210888066    0    0    0    0    0    0    0    
356    10.160460204392244    0    0    0    0    0    0    0    
357    10.196071468430343    0    0    0    0    0    0    0    
358    9.861369505536002    0    0    0    0    0    0    0    
359    9.644958070319243    0    0    0    0    0    0    0    
360    10.232059201585045    0    0    0    0    0    0    0    
361    10.169232837372299    0    0    0    0    0    0    0    
362    10.238974169120668    0    0    0    0    0    0    0    
363    9.670928597577078    0    0    0    0    0    0    0    
364    9.891231804041706    0    0    0    0    0    0    0    
365    9.939182900942757    0    0    0    0    0    0    0    
366    9.522560240263582    0    0    0    0    0    0    0    
367    9.672600329240035    0    0    0    0    0    0    0    
368    9.923777219219053    0    0    0    0    0    0    0    
369    10.128725973127207    0    0    0    0    0    0    0    
370    10.005326795829621    0    0    0    0    0    0    0    
371    9.784001722799125    0    0    0    0    0    0    0    
372    9.935528127126062    0    0    0    0    0    0    0    
373    9.789432472421735    0    0    0    0    0    0    0    
374    10.19204991927295    0    0    0    0    0    0    0    
375    9.696920080784276    0    0    0    0    0    0    0    
376    10.238603349548015    0    0    0    0    0    0    0    
377    9.703233918302708    0    0    0    0    0    0    0    
378    9.815022901514219    0    0    0    0    0    0    0    
379    9.737144437210857    0    0    0    0    0    0    0    
380    9.921079166771184    0    0    0    0    0    0    0    
381    9.941990957491948    0    0    0    0    0    0    0    
382    10.14284779528841    0    0    0    0    0    0    0    
383    9.955182070350608    0    0    0    0    0    0    0    
384    9.914881509402656    0    0    0    0    0    0    0    
385    10.47220061087059    0    0    0    0    0    0    0    
386    9.849027659373471    0    0    0    0    0    0    0    
387    9.60748129616558    0    0    0    0    0    0    0    
388    9.622761043468785    0    0    0    0    0    0    0    
389    9.936382622231209    0    0    0    0    0    0    0    
390    9.784976965739357    0    0    0    0    0    0    0    
391    9.8668068966147    0    0    0    0    0    0    0    
392    9.460585592298528    0    0    0    0    0    0    0    
393    9.96485082689787    0    0    0    0    0    0    0    
394    9.895832849831788    0    0    0    0    0    0    0    
395    9.975680903778471    0    0    0    0    0    0    0    
396    9.950986475171433    0    0    0    0    0    0    0    
397    9.731817651104244    0    0    0    0    0    0    0    
398    9.929006624503858    0    0    0    0    0    0    0    
399    10.319868418370458    0    0    0    0    0    0    0    
400    9.968015621171313    0    0    0    0    0    0    0    
401    9.994625740269205    0    0    0    0    0    0    0    
402    9.874591991542884    0    0    0    0    0    0    0    
403    9.9489134670189    0    0    0    0    0    0    0    
404    9.757648633749186    0    0    0    0    0    0    0    
405    9.584296680671116    0    0    0    0    0    0    0    
406    10.309319745424254    0    0    0    0    0    0    0    
407    9.780514117175915    0    0    0    0    0    0    0    
408    10.006823673306329    0    0    0    0    0    0    0    
409    10.071760605510176    0    0    0    0    0    0    0    
410    9.52091751682948    0    0    0    0    0    0    0    
411    10.244982838045221    0    0    0    0    0    0    0    
412    9.721482914114791    0    0    0    0    0    0    0    
413    9.531077345278304    0    0    0    0    0    0    0    
414    9.766398313007059    0    0    0    0    0    0    0    
415    9.697573952244836    0    0    0    0    0    0    0    
416    9.579126408625973    0    0    0    0    0    0    0    
417    9.279720825011239    0    0    0    0    0    0    0    
418    9.988697923609957    0    0    0    0    0    0    0    
419    9.811254825962111    0    0    0    0    0    0    0    
420    9.975723577597952    0    0    0    0    0    0    0    
421    10.176913047752874    0    0    0    0    0    0    0    
422    10.291399500172341    0    0    0    0    0    0    0    
423    9.607160480081133    0    0    0    0    0    0    0    
424    9.809045349917701    0    0    0    0    0    0    0    
425    9.713348187957216    0    0    0    0    0    0    0    
426    9.943157282465295    0    0    0    0    0    0    0    
427    10.082891902142489    0    0    0    0    0    0    0    
428    10.28075595193713    0    0    0    0    0    0    0    
429    9.986098759111812    0    0    0    0    0    0    0    
430    9.898957401759507    0    0    0    0    0    0    0    
431    9.996058767353707    0    0    0    0    0    0    0    
432    10.071071253149322    0    0    0    0    0    0    0    
433    10.064041666065677    0    0    0    0    0    0    0    
434    9.749867944902896    0    0    0    0    0    0    0    
435    9.960708587216994    0    0    0    0    0    0    0    
436    9.964775016003097    0    0    0    0    0    0    0    
437    9.258644386398332    0    0    0    0    0    0    0    
438    10.011577308118271    0    0    0    0    0    0    0    
439    9.730240110506658    0    0    0    0    0    0    0    
440    9.68897481575326    0    0    0    0    0    0    0    
441    9.998884778570979    0    0    0    0    0    0    0    
442    9.937931515670718    0    0    0    0    0    0    0    
443    9.855561833062668    0    0    0    0    0    0    0    
444    9.617806769043227    0    0    0    0    0    0    0    
445    9.857105148330547    0    0    0    0    0    0    0    
446    9.964329324671882    0    0    0    0    0    0    0    
447    9.891883089163537    0    0    0    0    0    0    0    
448    9.79653368865022    0    0    0    0    0    0    0    
449    10.039661403088648    0    0    0    0    0    0    0    
450    9.893788114009679    0    0    0    0    0    0    0    
451    9.546051270843419    0    0    0    0    0    0    0    
452    9.744116774876465    0    0    0    0    0    0    0    
453    9.532974046798895    0    0    0    0    0    0    0    
454    9.805773741496832    0    0    0    0    0    0    0    
455    9.867992240142247    0    0    0    0    0    0    0    
456    9.957906764898713    0    0    0    0    0    0    0    
457    9.823192479448515    0    0    0    0    0    0    0    
458    9.980273872010468    0    0    0    0    0    0    0    