! OpenFAST Deterministic Wind File
#
# Comment lines begin with "!" or "#" or "%", then the data lines must contain the following columns:
#
# If there are only 8 columns, upflow is assumed to be 0.
#
# Parameters are interpolated linearly between time steps; using nearest neighbor before the first time 
# listed in this file and after the last time listed in the file. 
#
! Time     Wind    Wind    Vertical    Horiz.      Pwr.Law     Lin.Vert.   Gust     Upflow
!          Speed   Dir     Speed       Shear       Vert.Shr    Shear       Speed    Angle 
! (sec)    (m/s)   (Deg)   (m/s)                                            (m/s)   (deg)
0    8.82614526381364    0    0    0    0    0    0    0    
1    8.514562869289756    0    0    0    0    0    0    0    
2    8.626878107935587    0    0    0    0    0    0    0    
3    8.51415215023452    0    0    0    0    0    0    0    
4    8.979440797029582    0    0    0    0    0    0    0    
5    8.856115569811784    0    0    0    0    0    0    0    
6    8.758872926716657    0    0    0    0    0    0    0    
7    8.518395062266123    0    0    0    0    0    0    0    
8    8.54574330234078    0    0    0    0    0    0    0    
9    8.771441889987813    0    0    0    0    0    0    0    
10    8.464904474993267    0    0    0    0    0    0    0    
11    8.60485206336362    0    0    0    0    0    0    0    
12    8.702142257898505    0    0    0    0    0    0    0    
13    8.542022657418253    0    0    0    0    0    0    0    
14    8.99225689330968    0    0    0    0    0    0    0    
15    8.74053258815977    0    0    0    0    0    0    0    
16    8.606887903137775    0    0    0    0    0    0    0    
17    8.632705753892848    0    0    0    0    0    0    0    
18    8.796569434908925    0    0    0    0    0    0    0    
19    8.696310537706271    0    0    0    0    0    0    0    
20    8.659772109041958    0    0    0    0    0    0    0    
21    8.294247338590408    0    0    0    0    0    0    0    
22    8.627248170350402    0    0    0    0    0    0    0    
23    8.690439937736137    0    0    0    0    0    0    0    
24    8.375239976212045    0    0    0    0    0    0    0    
25    8.749594866160427    0    0    0    0    0    0    0    
26    8.343708559106675    0    0    0    0    0    0    0    
27    9.140841498042771    0    0    0    0    0    0    0    
28    8.551778206800243    0    0    0    0    0    0    0    
29    8.33553617773468    0    0    0    0    0    0    0    
30    8.863322907051167    0    0    0    0    0    0    0    
31    8.632014460173295    0    0    0    0    0    0    0    
32    8.718097219148348    0    0    0    0    0    0    0    
33    8.717961336857302    0    0    0    0    0    0    0    
34    8.679318383347896    0    0    0    0    0    0    0    
35    8.752381735361688    0    0    0    0    0    0    0    
36    8.757744274130564    0    0    0    0    0    0    0    
37    8.779357764161324    0    0    0    0    0    0    0    
38    8.50931958423595    0    0    0    0    0    0    0    
39    8.49127372791094    0    0    0    0    0    0    0    
40    9.01960980594514    0    0    0    0    0    0    0    
41    8.169734948398602    0    0    0    0    0    0    0    
42    8.777478021601574    0    0    0    0    0    0    0    
43    8.603963235732985    0    0    0    0    0    0    0    
44    8.725822807389706    0    0    0    0    0    0    0    
45    8.751824897049717    0    0    0    0    0    0    0    
46    8.752875788903937    0    0    0    0    0    0    0    
47    8.730187583996972    0    0    0    0    0    0    0    
48    9.1041275749741    0    0    0    0    0    0    0    
49    8.855406828289034    0    0    0    0    0    0    0    
50    8.488686929924464    0    0    0    0    0    0    0    
51    8.729847185112492    0    0    0    0    0    0    0    
52    8.587073757840825    0    0    0    0    0    0    0    
53    8.639321871353127    0    0    0    0    0    0    0    
54    8.785829035364971    0    0    0    0    0    0    0    
55    8.791220742709383    0    0    0    0    0    0    0    
56    8.714122359419337    0    0    0    0    0    0    0    
57    8.59458922583828    0    0    0    0    0    0    0    
58    8.482325008966333    0    0    0    0    0    0    0    
59    8.27620927827585    0    0    0    0    0    0    0    
60    8.767538741618237    0    0    0    0    0    0    0    
61    9.019304500200798    0    0    0    0    0    0    0    
62    8.725128744615976    0    0    0    0    0    0    0    
63    8.636639395355587    0    0    0    0    0    0    0    
64    8.794067321916431    0    0    0    0    0    0    0    
65    8.647459619928215    0    0    0    0    0    0    0    
66    8.83839081518535    0    0    0    0    0    0    0    
67    8.913374956664578    0    0    0    0    0    0    0    
68    8.321486255861254    0    0    0    0    0    0    0    
69    9.05496126861423    0    0    0    0    0    0    0    
70    8.844004641827556    0    0    0    0    0    0    0    
71    8.572211835942467    0    0    0    0    0    0    0    
72    8.525009996944968    0    0    0    0    0    0    0    
73    8.495606986298142    0    0    0    0    0    0    0    
74    8.566024284563362    0    0    0    0    0    0    0    
75    8.596625746701642    0    0    0    0    0    0    0    
76    8.766270290562648    0    0    0    0    0    0    0    
77    8.887636793977842    0    0    0    0    0    0    0    
78    8.674044130537986    0    0    0    0    0    0    0    
79    8.83572529413784    0    0    0    0    0    0    0    
80    8.962725609030752    0    0    0    0    0    0    0    
81    8.879363690367793    0    0    0    0    0    0    0    
82    8.51628829343376    0    0    0    0    0    0    0    
83    8.448317831520585    0    0    0    0    0    0    0    
84    8.799902428954395    0    0    0    0    0    0    0    
85    8.622297233834852    0    0    0    0    0    0    0    
86    8.758090157135229    0    0    0    0    0    0    0    
87    8.284083388668664    0    0    0    0    0    0    0    
88    8.502920974089728    0    0    0    0    0    0    0    
89    8.901416089613562    0    0    0    0    0    0    0    
90    8.532903066149027    0    0    0    0    0    0    0    
91    8.50370963350719    0    0    0    0    0    0    0    
92    8.945944730478683    0    0    0    0    0    0    0    
93    9.00740071223715    0    0    0    0    0    0    0    
94    8.71106019907636    0    0    0    0    0    0    0    
95    8.948229962742218    0    0    0    0    0    0    0    
96    8.741744949505707    0    0    0    0    0    0    0    
97    8.638066855121458    0    0    0    0    0    0    0    
98    8.634515084461096    0    0    0    0    0    0    0    
99    8.606194464160929    0    0    0    0    0    0    0    
100    8.424972095457367    0    0    0    0    0    0    0    
101    8.745305305860636    0    0    0    0    0    0    0    
102    8.466758585824293    0    0    0    0    0    0    0    
103    8.397796658904959    0    0    0    0    0    0    0    
104    8.869129501736614    0    0    0    0    0    0    0    
105    8.613913306002196    0    0    0    0    0    0    0    
106    8.223253416058684    0    0    0    0    0    0    0    
107    8.326676013580641    0    0    0    0    0    0    0    
108    8.382043005829875    0    0    0    0    0    0    0    
109    8.755737843053605    0    0    0    0    0    0    0    
110    8.701599889694474    0    0    0    0    0    0    0    
111    8.61092933014306    0    0    0    0    0    0    0    
112    8.9368290392584    0    0    0    0    0    0    0    
113    8.592940854406624    0    0    0    0    0    0    0    
114    8.269939068151004    0    0    0    0    0    0    0    
115    8.708360196844387    0    0    0    0    0    0    0    
116    8.66167162522561    0    0    0    0    0    0    0    
117    8.643633855663786    0    0    0    0    0    0    0    
118    8.93278748388188    0    0    0    0    0    0    0    
119    8.944237725681667    0    0    0    0    0    0    0    
120    8.264346639799681    0    0    0    0    0    0    0    
121    8.87047027917291    0    0    0    0    0    0    0    
122    8.680207679798947    0    0    0    0    0    0    0    
123    8.97624886383901    0    0    0    0    0    0    0    
124    8.540018504744003    0    0    0    0    0    0    0    
125    8.875969514114072    0    0    0    0    0    0    0    
126    8.54256635748578    0    0    0    0    0    0    0    
127    8.88178879467992    0    0    0    0    0    0    0    
128    8.432399806162028    0    0    0    0    0    0    0    
129    8.319792100251382    0    0    0    0    0    0    0    
130    8.26661141846898    0    0    0    0    0    0    0    
131    8.747159222620375    0    0    0    0    0    0    0    
132    8.639177565429137    0    0    0    0    0    0    0    
133    8.341077439944101    0    0    0    0    0    0    0    
134    8.520935283866358    0    0    0    0    0    0    0    
135    8.538935859381912    0    0    0    0    0    0    0    
136    8.552428945549368    0    0    0    0    0    0    0    
137    8.569550487955963    0    0    0    0    0    0    0    
138    8.668206487457145    0    0    0    0    0    0    0    
139    8.800787549027461    0    0    0    0    0    0    0    
140    8.321273722063367    0    0    0    0    0    0    0    
141    8.278196312950422    0    0    0    0    0    0    0    
142    8.471382207647217    0    0    0    0    0    0    0    
143    8.736995725325805    0    0    0    0    0    0    0    
144    8.663570784586335    0    0    0    0    0    0    0    
145    9.192579358696626    0    0    0    0    0    0    0    
146    8.678032279648283    0    0    0    0    0    0    0    
147    8.699011582485856    0    0    0    0    0    0    0    
148    8.467948582784086    0    0    0    0    0    0    0    
149    8.846771426087333    0    0    0    0    0    0    0    
150    8.845672383647136    0    0    0    0    0    0    0    
151    8.864282598974707    0    0    0    0    0    0    0    
152    8.546000784954295    0    0    0    0    0    0    0    
153    8.686045123807236    0    0    0    0    0    0    0    
154    8.619682902137983    0    0    0    0    0    0    0    
155    8.296252766862015    0    0    0    0    0    0    0    
156    8.689830062637437    0    0    0    0    0    0    0    
157    8.661185676409225    0    0    0    0    0    0    0    
158    8.640768563589845    0    0    0    0    0    0    0    
159    8.75532742140436    0    0    0    0    0    0    0    
160    8.343132315250312    0    0    0    0    0    0    0    
161    8.625356926604582    0    0    0    0    0    0    0    
162    8.569984562060057    0    0    0    0    0    0    0    
163    8.494759230832518    0    0    0    0    0    0    0    
164    8.33520294807744    0    0    0    0    0    0    0    
165    9.011778430020636    0    0    0    0    0    0    0    
166    8.486887512785538    0    0    0    0    0    0    0    
167    8.723280805682876    0    0    0    0    0    0    0    
168    8.92422963967986    0    0    0    0    0    0    0    
169    8.743031224642412    0    0    0    0    0    0    0    
170    8.608396850364747    0    0    0    0    0    0    0    
171    8.604195845878499    0    0    0    0    0    0    0    
172    8.63630011511903    0    0    0    0    0    0    0    
173    8.413149812498476    0    0    0    0    0    0    0    
174    8.815883074944669    0    0    0    0    0    0    0    
175    8.64011919216054    0    0    0    0    0    0    0    
176    8.53453278503371    0    0    0    0    0    0    0    
177    8.440806378531434    0    0    0    0    0    0    0    
178    8.547523066680009    0    0    0    0    0    0    0    
179    8.792456347536742    0    0    0    0    0    0    0    
180    8.584548006598395    0    0    0    0    0    0    0    
181    8.866365249466046    0    0    0    0    0    0    0    
182    8.583290197960283    0    0    0    0    0    0    0    
183    8.741705391701782    0    0    0    0    0    0    0    
184    8.751746232347642    0    0    0    0    0    0    0    
185    8.556326959551544    0    0    0    0    0    0    0    
186    8.682481279145565    0    0    0    0    0    0    0    
187    8.74421616864195    0    0    0    0    0    0    0    
188    8.774257106678643    0    0    0    0    0    0    0    
189    8.463096391646246    0    0    0    0    0    0    0    
190    8.66542368709271    0    0    0    0    0    0    0    
191    8.753249948166598    0    0    0    0    0    0    0    
192    8.584893042934192    0    0    0    0    0    0    0    
193    8.337898713651382    0    0    0    0    0    0    0    
194    8.966046063521    0    0    0    0    0    0    0    
195    8.67557054549545    0    0    0    0    0    0    0    
196    8.796693647879751    0    0    0    0    0    0    0    
197    8.888382705670166    0    0    0    0    0    0    0    
198    9.034589512935819    0    0    0    0    0    0    0    
199    8.516328392839574    0    0    0    0    0    0    0    
200    8.526673636963285    0    0    0    0    0    0    0    
201    8.427804786204684    0    0    0    0    0    0    0    
202    8.54100552091981    0    0    0    0    0    0    0    
203    8.57585613563474    0    0    0    0    0    0    0    
204    8.813187933081348    0    0    0    0    0    0    0    
205    8.922381377912453    0    0    0    0    0    0    0    
206    8.914705818590544    0    0    0    0    0    0    0    
207    8.52345583148685    0    0    0    0    0    0    0    
208    8.76514251417593    0    0    0    0    0    0    0    
209    8.568675029173495    0    0    0    0    0    0    0    
210    8.730090500597809    0    0    0    0    0    0    0    
211    9.11880132113054    0    0    0    0    0    0    0    
212    8.746142229359545    0    0    0    0    0    0    0    
213    8.749525355620248    0    0    0    0    0    0    0    
214    8.650729785480133    0    0    0    0    0    0    0    
215    8.712272422355257    0    0    0    0    0    0    0    
216    8.61978760937651    0    0    0    0    0    0    0    
217    8.526822010794026    0    0    0    0    0    0    0    
218    8.486977249245188    0    0    0    0    0    0    0    
219    8.209689091970425    0    0    0    0    0    0    0    
220    8.737207684552072    0    0    0    0    0    0    0    
221    8.591220754053724    0    0    0    0    0    0    0    
222    8.860231490143748    0    0    0    0    0    0    0    
223    8.533235409350402    0    0    0    0    0    0    0    
224    9.187675961002327    0    0    0    0    0    0    0    
225    8.466677640739102    0    0    0    0    0    0    0    
226    8.407084504861643    0    0    0    0    0    0    0    
227    8.969649035826135    0    0    0    0    0    0    0    
228    8.595880438986828    0    0    0    0    0    0    0    
229    8.776465881910449    0    0    0    0    0    0    0    
230    8.836757159011063    0    0    0    0    0    0    0    
231    8.712301653904253    0    0    0    0    0    0    0    
232    8.782176363753985    0    0    0    0    0    0    0    
233    8.837703215579323    0    0    0    0    0    0    0    
234    8.608983162858772    0    0    0    0    0    0    0    
235    9.13392731482848    0    0    0    0    0    0    0    
236    8.930999800026552    0    0    0    0    0    0    0    
237    8.81337099944277    0    0    0    0    0    0    0    
238    8.427583273266446    0    0    0    0    0    0    0    
239    8.615814505490588    0    0    0    0    0    0    0    
240    8.315419451350786    0    0    0    0    0    0    0    
241    8.903865691595062    0    0    0    0    0    0    0    
242    8.517249840057625    0    0    0    0    0    0    0    
243    8.970416849193102    0    0    0    0    0    0    0    
244    8.81719126418715    0    0    0    0    0    0    0    
245    8.458576693820769    0    0    0    0    0    0    0    
246    8.430165446629584    0    0    0    0    0    0    0    
247    9.025265393041147    0    0    0    0    0    0    0    
248    8.186797344955227    0    0    0    0    0    0    0    
249    8.622511436710434    0    0    0    0    0    0    0    
250    8.78501344576617    0    0    0    0    0    0    0    
251    8.743211938496556    0    0    0    0    0    0    0    
252    8.498338563950764    0    0    0    0    0    0    0    
253    8.887747781924771    0    0    0    0    0    0    0    
254    8.906605346763603    0    0    0    0    0    0    0    
255    8.5838649049546    0    0    0    0    0    0    0    
256    8.895883592199976    0    0    0    0    0    0    0    
257    9.01401851558539    0    0    0    0    0    0    0    
258    8.750837204902957    0    0    0    0    0    0    0    
259    8.917314988190872    0    0    0    0    0    0    0    
260    8.562865526038054    0    0    0    0    0    0    0    
261    8.533958122462101    0    0    0    0    0    0    0    
262    8.443196062637828    0    0    0    0    0    0    0    
263    8.35473246513307    0    0    0    0    0    0    0    
264    8.753471882289771    0    0    0    0    0    0    0    
265    8.588435245868306    0    0    0    0    0    0    0    
266    8.642594925931142    0    0    0    0    0    0    0    
267    8.71039028612812    0    0    0    0    0    0    0    
268    8.670797566221347    0    0    0    0    0    0    0    
269    8.50817234625882    0    0    0    0    0    0    0    
270    8.654563980470213    0    0    0    0    0    0    0    
271    8.653641643722823    0    0    0    0    0    0    0    
272    8.63089134788253    0    0    0    0    0    0    0    
273    8.888908547885064    0    0    0    0    0    0    0    
274    8.909590170678358    0    0    0    0    0    0    0    
275    8.645436360310184    0    0    0    0    0    0    0    
276    8.557092636071419    0    0    0    0    0    0    0    
277    8.970714440876215    0    0    0    0    0    0    0    
278    8.533329877671882    0    0    0    0    0    0    0    
279    8.613335132505064    0    0    0    0    0    0    0    
280    8.825093420828702    0    0    0    0    0    0    0    
281    8.462631578214511    0    0    0    0    0    0    0    
282    8.813285403317519    0    0    0    0    0    0    0    
283    8.621142369044751    0    0    0    0    0    0    0    
284    8.685390596140591    0    0    0    0    0    0    0    
285    8.91305422339    0    0    0    0    0    0    0    
286    8.274785100755059    0    0    0    0    0    0    0    
287    8.801117978390002    0    0    0    0    0    0    0    
288    8.795598738758002    0    0    0    0    0    0    0    
289    8.702946528096046    0    0    0    0    0    0    0    
290    8.816197384097066    0    0    0    0    0    0    0    
291    8.90959081642103    0    0    0    0    0    0    0    
292    8.67214062620718    0    0    0    0    0    0    0    
293    8.364279757466251    0    0    0    0    0    0    0    
294    8.54212275241861    0    0    0    0    0    0    0    
295    8.614859416315738    0    0    0    0    0    0    0    
296    8.683961090984756    0    0    0    0    0    0    0    
297    8.69369743669639    0    0    0    0    0    0    0    
298    8.31265599560071    0    0    0    0    0    0    0    
299    8.942473753920604    0    0    0    0    0    0    0    
300    9.12666572620747    0    0    0    0    0    0    0    
301    8.496360060775281    0    0    0    0    0    0    0    
302    8.503029992260053    0    0    0    0    0    0    0    
303    8.839198072867427    0    0    0    0    0    0    0    
304    8.666294277006898    0    0    0    0    0    0    0    
305    8.466385969191832    0    0    0    0    0    0    0    
306    8.499117335272684    0    0    0    0    0    0    0    
307    8.67993747333025    0    0    0    0    0    0    0    
308    8.633778556143291    0    0    0    0    0    0    0    
309    8.723958582863265    0    0    0    0    0    0    0    
310    8.702415710310692    0    0    0    0    0    0    0    
311    8.753719046635318    0    0    0    0    0    0    0    
312    8.664378554449558    0    0    0    0    0    0    0    
313    8.581761543217345    0    0    0    0    0    0    0    
314    8.932186824630394    0    0    0    0    0    0    0    
315    8.498424133544937    0    0    0    0    0    0    0    
316    8.5955265136645    0    0    0    0    0    0    0    
317    8.523778687916405    0    0    0    0    0    0    0    
318    8.871900912974258    0    0    0    0    0    0    0    
319    8.340237851735521    0    0    0    0    0    0    0    
320    8.933832753432023    0    0    0    0    0    0    0    
321    8.630170234853288    0    0    0    0    0    0    0    
322    8.383932985794235    0    0    0    0    0    0    0    
323    8.802567058180076    0    0    0    0    0    0    0    
324    8.668644384757524    0    0    0    0    0    0    0    
325    8.733113903681113    0    0    0    0    0    0    0    
326    8.578013967685846    0    0    0    0    0    0    0    
327    8.752385527332136    0    0    0    0    0    0    0    
328    8.774914824491695    0    0    0    0    0    0    0    
329    8.467742721843274    0    0    0    0    0    0    0    
330    8.701524098960794    0    0    0    0    0    0    0    
331    9.029246190136918    0    0    0    0    0    0    0    
332    8.52976358977038    0    0    0    0    0    0    0    
333    8.78764144293454    0    0    0    0    0    0    0    
334    8.78543199332224    0    0    0    0    0    0    0    
335    8.54046185562158    0    0    0    0    0    0    0    
336    8.440716119741092    0    0    0    0    0    0    0    
337    8.721661746663603    0    0    0    0    0    0    0    
338    9.132403466665355    0    0    0    0    0    0    0    
339    8.792444345573657    0    0    0    0    0    0    0    
340    8.56211858546374    0    0    0    0    0    0    0    
341    8.668859882543728    0    0    0    0    0    0    0    
342    8.5488836967907    0    0    0    0    0    0    0    
343    8.535380342715854    0    0    0    0    0    0    0    
344    8.88133145553739    0    0    0    0    0    0    0    
345    8.561385560626608    0    0    0    0    0    0    0    
346    8.698477034423917    0    0    0    0    0    0    0    
347    8.746235807598019    0    0    0    0    0    0    0    
348    8.685923415643883    0    0    0    0    0    0    0    
349    8.733324985525002    0    0    0    0    0    0    0    
350    8.495780766087082    0    0    0    0    0    0    0    
351    8.818136262540174    0    0    0    0    0    0    0    
352    8.998675353421868    0    0    0    0    0    0    0    
353    8.79034174886214    0    0    0    0    0    0    0    
354    8.903945500715176    0    0    0    0    0    0    0    
355    8.635735668389168    0    0    0    0    0    0    0    
356    8.575589707592764    0    0    0    0    0    0    0    
357    8.898430923743337    0    0    0    0    0    0    0    
358    8.672489878542045    0    0    0    0    0    0    0    
359    8.831971387625662    0    0    0    0    0    0    0    
360    8.749528328600473    0    0    0    0    0    0    0    
361    8.819402921099925    0    0    0    0    0    0    0    
362    8.801092634286375    0    0    0    0    0    0    0    
363    8.815202792187272    0    0    0    0    0    0    0    
364    8.829055989245223    0    0    0    0    0    0    0    
365    8.758677485921357    0    0    0    0    0    0    0    
366    8.51707214714083    0    0    0    0    0    0    0    
367    8.396080796662291    0    0    0    0    0    0    0    
368    8.966471151785436    0    0    0    0    0    0    0    
369    8.53742308174628    0    0    0    0    0    0    0    
370    8.426120406535253    0    0    0    0    0    0    0    
371    8.606973765756939    0    0    0    0    0    0    0    
372    8.620439211471275    0    0    0    0    0    0    0    
373    8.481386282500102    0    0    0    0    0    0    0    
374    8.921940663951755    0    0    0    0    0    0    0    
375    8.966461718300714    0    0    0    0    0    0    0    
376    8.634500867396492    0    0    0    0    0    0    0    
377    8.58460918071664    0    0    0    0    0    0    0    
378    8.320941241208502    0    0    0    0    0    0    0    
379    8.570798208604902    0    0    0    0    0    0    0    
380    8.184888241487583    0    0    0    0    0    0    0    
381    8.437564876838724    0    0    0    0    0    0    0    
382    8.736999506738758    0    0    0    0    0    0    0    
383    8.130972320106581    0    0    0    0    0    0    0    
384    8.677566525240184    0    0    0    0    0    0    0    
385    8.951764573658876    0    0    0    0    0    0    0    
386    8.679581932620627    0    0    0    0    0    0    0    
387    8.762739060274187    0    0    0    0    0    0    0    
388    8.411291261835519    0    0    0    0    0    0    0    
389    8.578086492743786    0    0    0    0    0    0    0    
390    8.63827155893561    0    0    0    0    0    0    0    
391    8.844082193104578    0    0    0    0    0    0    0    
392    8.5555577965632    0    0    0    0    0    0    0    
393    8.912287129254524    0    0    0    0    0    0    0    
394    8.480977273826761    0    0    0    0    0    0    0    
395    8.86726233906998    0    0    0    0    0    0    0    
396    8.503739439246322    0    0    0    0    0    0    0    
397    8.454569446021525    0    0    0    0    0    0    0    
398    8.687802511285694    0    0    0    0    0    0    0    
399    8.570733743945087    0    0    0    0    0    0    0    
400    8.593009365870381    0    0    0    0    0    0    0    
401    8.507864372204448    0    0    0    0    0    0    0    
402    8.66407443454916    0    0    0    0    0    0    0    
403    8.800612165236686    0    0    0    0    0    0    0    
404    9.039275532543746    0    0    0    0    0    0    0    
405    8.427443002012355    0    0    0    0    0    0    0    
406    8.50937474632985    0    0    0    0    0    0    0    
407    8.786928741936737    0    0    0    0    0    0    0    
408    8.410434385519762    0    0    0    0    0    0    0    
409    8.665116639733727    0    0    0    0    0    0    0    
410    8.430455127725239    0    0    0    0    0    0    0    
411    8.749366686303308    0    0    0    0    0    0    0    
412    8.360826822883782    0    0    0    0    0    0    0    
413    8.550157585855894    0    0    0    0    0    0    0    
414    8.999059818115812    0    0    0    0    0    0    0    
415    8.845489762464236    0    0    0    0    0    0    0    
416    8.655461126512394    0    0    0    0    0    0    0    
417    8.506384125517926    0    0    0    0    0    0    0    
418    8.393051882069367    0    0    0    0    0    0    0    
419    8.764231864622506    0    0    0    0    0    0    0    
420    8.472825861546042    0    0    0    0    0    0    0    
421    8.67958465047426    0    0    0    0    0    0    0    
422    8.29857547241104    0    0    0    0    0    0    0    
423    8.811905141349989    0    0    0    0    0    0    0    
424    8.354753734568755    0    0    0    0    0    0    0    
425    8.846718692168476    0    0    0    0    0    0    0    
426    8.68891705952912    0    0    0    0    0    0    0    
427    8.824105541338577    0    0    0    0    0    0    0    
428    8.71168036747644    0    0    0    0    0    0    0    
429    8.506097729690358    0    0    0    0    0    0    0    
430    8.563695802397666    0    0    0    0    0    0    0    
431    8.64288615237972    0    0    0    0    0    0    0    
432    8.845578604661736    0    0    0    0    0    0    0    
433    8.71733254248752    0    0    0    0    0    0    0    
434    9.008956981243818    0    0    0    0    0    0    0    
435    8.871092247991509    0    0    0    0    0    0    0    
436    8.70329179519823    0    0    0    0    0    0    0    
437    8.783599870006501    0    0    0    0    0    0    0    
438    8.500434942003043    0    0    0    0    0    0    0    
439    8.860861063671171    0    0    0    0    0    0    0    
440    8.374544415156468    0    0    0    0    0    0    0    
441    8.672097438886551    0    0    0    0    0    0    0    
442    8.550465901366952    0    0    0    0    0    0    0    
443    8.919714182610937    0    0    0    0    0    0    0    
444    8.344542904879551    0    0    0    0    0    0    0    
445    8.302692838149941    0    0    0    0    0    0    0    
446    8.401365415088545    0    0    0    0    0    0    0    
447    8.794950323892868    0    0    0    0    0    0    0    
448    8.747519708006825    0    0    0    0    0    0    0    
449    8.832297034689619    0    0    0    0    0    0    0    
450    8.812116347617234    0    0    0    0    0    0    0    
451    8.658398324919283    0    0    0    0    0    0    0    
452    9.03266625340807    0    0    0    0    0    0    0    
453    8.933785031687876    0    0    0    0    0    0    0    
454    8.968497824706656    0    0    0    0    0    0    0    
455    8.530458999703239    0    0    0    0    0    0    0    
456    8.942055905715206    0    0    0    0    0    0    0    
457    8.379410949256407    0    0    0    0    0    0    0    
458    8.567902848573636    0    0    0    0    0    0    0    
459    8.68245249578352    0    0    0    0    0    0    0    
460    8.560626811728712    0    0    0    0    0    0    0    