! OpenFAST Deterministic Wind File
#
# Comment lines begin with "!" or "#" or "%", then the data lines must contain the following columns:
#
# If there are only 8 columns, upflow is assumed to be 0.
#
# Parameters are interpolated linearly between time steps; using nearest neighbor before the first time 
# listed in this file and after the last time listed in the file. 
#
! Time     Wind    Wind    Vertical    Horiz.      Pwr.Law     Lin.Vert.   Gust     Upflow
!          Speed   Dir     Speed       Shear       Vert.Shr    Shear       Speed    Angle 
! (sec)    (m/s)   (Deg)   (m/s)                                            (m/s)   (deg)
0    7.9430948494400955    0    0    0    0    0    0    0    
1    7.873728179798479    0    0    0    0    0    0    0    
2    7.878596854738086    0    0    0    0    0    0    0    
3    7.707198176824605    0    0    0    0    0    0    0    
4    7.830706457962126    0    0    0    0    0    0    0    
5    7.585045856507719    0    0    0    0    0    0    0    
6    7.731578771428998    0    0    0    0    0    0    0    
7    7.978648282670726    0    0    0    0    0    0    0    
8    7.803853274045611    0    0    0    0    0    0    0    
9    7.785996590740627    0    0    0    0    0    0    0    
10    7.798549388968445    0    0    0    0    0    0    0    
11    7.562224476902568    0    0    0    0    0    0    0    
12    7.837670164389963    0    0    0    0    0    0    0    
13    7.930567785308347    0    0    0    0    0    0    0    
14    8.035515646725694    0    0    0    0    0    0    0    
15    8.137935968180136    0    0    0    0    0    0    0    
16    7.931601244848255    0    0    0    0    0    0    0    
17    7.778995474943282    0    0    0    0    0    0    0    
18    8.018996960835134    0    0    0    0    0    0    0    
19    8.042301955926884    0    0    0    0    0    0    0    
20    7.792255233916429    0    0    0    0    0    0    0    
21    7.8884086396384765    0    0    0    0    0    0    0    
22    7.680517910313663    0    0    0    0    0    0    0    
23    7.5891704495291075    0    0    0    0    0    0    0    
24    7.331197655692725    0    0    0    0    0    0    0    
25    7.639055104503689    0    0    0    0    0    0    0    
26    8.065679978779876    0    0    0    0    0    0    0    
27    8.14508723619446    0    0    0    0    0    0    0    
28    7.734457425556535    0    0    0    0    0    0    0    
29    7.841590655606148    0    0    0    0    0    0    0    
30    7.70299677402399    0    0    0    0    0    0    0    
31    7.632503978334929    0    0    0    0    0    0    0    
32    7.6848054438822055    0    0    0    0    0    0    0    
33    7.721071058952354    0    0    0    0    0    0    0    
34    8.012959867829212    0    0    0    0    0    0    0    
35    7.641505451907672    0    0    0    0    0    0    0    
36    7.575114591087957    0    0    0    0    0    0    0    
37    8.0742442219754    0    0    0    0    0    0    0    
38    8.176883503012307    0    0    0    0    0    0    0    
39    7.5607731739385935    0    0    0    0    0    0    0    
40    8.086076107777853    0    0    0    0    0    0    0    
41    7.976944887322408    0    0    0    0    0    0    0    
42    7.408412088595137    0    0    0    0    0    0    0    
43    7.718631442009867    0    0    0    0    0    0    0    
44    8.00290561058943    0    0    0    0    0    0    0    
45    7.982214967739214    0    0    0    0    0    0    0    
46    8.106820566452763    0    0    0    0    0    0    0    
47    7.98526741306838    0    0    0    0    0    0    0    
48    7.929714807819719    0    0    0    0    0    0    0    
49    7.850649144680788    0    0    0    0    0    0    0    
50    8.259618332757851    0    0    0    0    0    0    0    
51    7.612030315960038    0    0    0    0    0    0    0    
52    7.989980513211807    0    0    0    0    0    0    0    
53    7.433635501135722    0    0    0    0    0    0    0    
54    7.776539775622014    0    0    0    0    0    0    0    
55    8.121039032252256    0    0    0    0    0    0    0    
56    7.770808380771794    0    0    0    0    0    0    0    
57    8.081144760444257    0    0    0    0    0    0    0    
58    7.895835682221382    0    0    0    0    0    0    0    
59    7.640007166350181    0    0    0    0    0    0    0    
60    8.113681906054582    0    0    0    0    0    0    0    
61    7.761180984439054    0    0    0    0    0    0    0    
62    7.834208647442709    0    0    0    0    0    0    0    
63    8.153432847812333    0    0    0    0    0    0    0    
64    8.059727263996521    0    0    0    0    0    0    0    
65    7.624240353424307    0    0    0    0    0    0    0    
66    8.13579363298823    0    0    0    0    0    0    0    
67    8.053165690155787    0    0    0    0    0    0    0    
68    7.63696953582521    0    0    0    0    0    0    0    
69    7.812854857995789    0    0    0    0    0    0    0    
70    7.808628853023689    0    0    0    0    0    0    0    
71    7.959404244805214    0    0    0    0    0    0    0    
72    7.845396363978537    0    0    0    0    0    0    0    
73    7.957677699124211    0    0    0    0    0    0    0    
74    8.025253823494092    0    0    0    0    0    0    0    
75    7.751759657700453    0    0    0    0    0    0    0    
76    7.679791935317914    0    0    0    0    0    0    0    
77    7.766940267068542    0    0    0    0    0    0    0    
78    7.935315763380364    0    0    0    0    0    0    0    
79    7.879019929232663    0    0    0    0    0    0    0    
80    8.040039947693929    0    0    0    0    0    0    0    
81    7.725768200237167    0    0    0    0    0    0    0    
82    7.9285316397422525    0    0    0    0    0    0    0    
83    8.181820750941068    0    0    0    0    0    0    0    
84    7.566030932355499    0    0    0    0    0    0    0    
85    8.026705967468114    0    0    0    0    0    0    0    
86    8.108471281117412    0    0    0    0    0    0    0    
87    7.396085543722783    0    0    0    0    0    0    0    
88    7.377173935406094    0    0    0    0    0    0    0    
89    7.949519412629733    0    0    0    0    0    0    0    
90    8.149790710278454    0    0    0    0    0    0    0    
91    8.099503262190112    0    0    0    0    0    0    0    
92    7.792226290543546    0    0    0    0    0    0    0    
93    7.9408398050895705    0    0    0    0    0    0    0    
94    8.048659459759339    0    0    0    0    0    0    0    
95    7.78792526777417    0    0    0    0    0    0    0    
96    8.070250411575639    0    0    0    0    0    0    0    
97    7.797077947574004    0    0    0    0    0    0    0    
98    7.411621573489191    0    0    0    0    0    0    0    
99    7.857375760080131    0    0    0    0    0    0    0    
100    7.753611289337172    0    0    0    0    0    0    0    
101    7.985526265270336    0    0    0    0    0    0    0    
102    7.7230053341497    0    0    0    0    0    0    0    
103    7.690074688356599    0    0    0    0    0    0    0    
104    7.632833010750417    0    0    0    0    0    0    0    
105    8.079620686403704    0    0    0    0    0    0    0    
106    7.609694820004331    0    0    0    0    0    0    0    
107    7.938167676450642    0    0    0    0    0    0    0    
108    7.787047562313098    0    0    0    0    0    0    0    
109    8.027534510416087    0    0    0    0    0    0    0    
110    7.9540569906957295    0    0    0    0    0    0    0    
111    7.699254466830251    0    0    0    0    0    0    0    
112    7.821284633441892    0    0    0    0    0    0    0    
113    7.50639518711267    0    0    0    0    0    0    0    
114    7.680512109700408    0    0    0    0    0    0    0    
115    7.748789077884529    0    0    0    0    0    0    0    
116    7.876832418791653    0    0    0    0    0    0    0    
117    7.881132509858627    0    0    0    0    0    0    0    
118    7.765444482794935    0    0    0    0    0    0    0    
119    8.039735319319162    0    0    0    0    0    0    0    
120    7.952944210970866    0    0    0    0    0    0    0    
121    7.88950755039692    0    0    0    0    0    0    0    
122    7.948116741782178    0    0    0    0    0    0    0    
123    7.561164641266415    0    0    0    0    0    0    0    
124    7.609958853961398    0    0    0    0    0    0    0    
125    7.646810709856425    0    0    0    0    0    0    0    
126    8.063466506244051    0    0    0    0    0    0    0    
127    7.846981907071476    0    0    0    0    0    0    0    
128    7.790937195308474    0    0    0    0    0    0    0    
129    7.553292467465573    0    0    0    0    0    0    0    
130    7.58577486909784    0    0    0    0    0    0    0    
131    7.941682698172256    0    0    0    0    0    0    0    
132    7.746466128442727    0    0    0    0    0    0    0    
133    7.747598462110077    0    0    0    0    0    0    0    
134    7.72468369174079    0    0    0    0    0    0    0    
135    8.217625811763085    0    0    0    0    0    0    0    
136    7.917839225325082    0    0    0    0    0    0    0    
137    7.551117275344776    0    0    0    0    0    0    0    
138    7.9721453616458176    0    0    0    0    0    0    0    
139    7.653169067912558    0    0    0    0    0    0    0    
140    7.613559424873417    0    0    0    0    0    0    0    
141    7.985344402996671    0    0    0    0    0    0    0    
142    7.4624336528286435    0    0    0    0    0    0    0    
143    7.934580651238932    0    0    0    0    0    0    0    
144    7.881639934474091    0    0    0    0    0    0    0    
145    7.836849400381437    0    0    0    0    0    0    0    
146    7.568218061520505    0    0    0    0    0    0    0    
147    7.991433601731907    0    0    0    0    0    0    0    
148    7.945262877278107    0    0    0    0    0    0    0    
149    7.942513996572609    0    0    0    0    0    0    0    
150    7.9574732582930725    0    0    0    0    0    0    0    
151    7.58966003606746    0    0    0    0    0    0    0    
152    7.813219949806922    0    0    0    0    0    0    0    
153    7.889694153851131    0    0    0    0    0    0    0    
154    8.19526340159301    0    0    0    0    0    0    0    
155    7.69675138099906    0    0    0    0    0    0    0    
156    8.094635553176385    0    0    0    0    0    0    0    
157    7.912684346989193    0    0    0    0    0    0    0    
158    7.5513428569511065    0    0    0    0    0    0    0    
159    8.014045678827497    0    0    0    0    0    0    0    
160    8.12135541278816    0    0    0    0    0    0    0    
161    7.901917795310258    0    0    0    0    0    0    0    
162    7.862729569542382    0    0    0    0    0    0    0    
163    7.468788402363131    0    0    0    0    0    0    0    
164    8.050061389934958    0    0    0    0    0    0    0    
165    8.332203980927966    0    0    0    0    0    0    0    
166    7.818520880287534    0    0    0    0    0    0    0    
167    7.819131516245436    0    0    0    0    0    0    0    
168    7.934803152356461    0    0    0    0    0    0    0    
169    7.6852186198728045    0    0    0    0    0    0    0    
170    7.882966818413117    0    0    0    0    0    0    0    
171    8.087800108724084    0    0    0    0    0    0    0    
172    7.81407446704888    0    0    0    0    0    0    0    
173    7.9826313120211765    0    0    0    0    0    0    0    
174    8.027797007894597    0    0    0    0    0    0    0    
175    8.066007426518576    0    0    0    0    0    0    0    
176    7.90429563771372    0    0    0    0    0    0    0    
177    7.736673278452769    0    0    0    0    0    0    0    
178    7.753067162765535    0    0    0    0    0    0    0    
179    7.7124026413680165    0    0    0    0    0    0    0    
180    7.75655095259528    0    0    0    0    0    0    0    
181    7.823058343422877    0    0    0    0    0    0    0    
182    7.869181879958824    0    0    0    0    0    0    0    
183    8.063308916832135    0    0    0    0    0    0    0    
184    7.49691164478964    0    0    0    0    0    0    0    
185    8.10200195609748    0    0    0    0    0    0    0    
186    7.842250917075937    0    0    0    0    0    0    0    
187    8.015295988911058    0    0    0    0    0    0    0    
188    7.881341983369707    0    0    0    0    0    0    0    
189    8.20137989466435    0    0    0    0    0    0    0    
190    7.558964386383019    0    0    0    0    0    0    0    
191    7.807725631810365    0    0    0    0    0    0    0    
192    7.803597048652887    0    0    0    0    0    0    0    
193    7.995975079837526    0    0    0    0    0    0    0    
194    7.957271431390674    0    0    0    0    0    0    0    
195    7.888335725255668    0    0    0    0    0    0    0    
196    8.447498991594285    0    0    0    0    0    0    0    
197    8.041827994076003    0    0    0    0    0    0    0    
198    7.845594433392952    0    0    0    0    0    0    0    
199    7.915456219132081    0    0    0    0    0    0    0    
200    7.801577096854526    0    0    0    0    0    0    0    
201    7.640980427533913    0    0    0    0    0    0    0    
202    7.60810949715997    0    0    0    0    0    0    0    
203    7.838034353001921    0    0    0    0    0    0    0    
204    7.957356672287668    0    0    0    0    0    0    0    
205    7.722478199030354    0    0    0    0    0    0    0    
206    7.747263138702832    0    0    0    0    0    0    0    
207    7.994966535407077    0    0    0    0    0    0    0    
208    7.932422032611842    0    0    0    0    0    0    0    
209    7.825607068241327    0    0    0    0    0    0    0    
210    7.811908042089778    0    0    0    0    0    0    0    
211    7.98597954824759    0    0    0    0    0    0    0    
212    8.318941712393924    0    0    0    0    0    0    0    
213    7.662043466363732    0    0    0    0    0    0    0    
214    7.649134320131351    0    0    0    0    0    0    0    
215    8.081961484718015    0    0    0    0    0    0    0    
216    7.896720288426532    0    0    0    0    0    0    0    
217    7.930158363053493    0    0    0    0    0    0    0    
218    7.738706994996607    0    0    0    0    0    0    0    
219    7.706175990965033    0    0    0    0    0    0    0    
220    7.8608376001936575    0    0    0    0    0    0    0    
221    8.001661865586538    0    0    0    0    0    0    0    
222    8.286222109828548    0    0    0    0    0    0    0    
223    7.901143934633451    0    0    0    0    0    0    0    
224    8.006089928783211    0    0    0    0    0    0    0    
225    7.829152112901309    0    0    0    0    0    0    0    
226    8.112587294619315    0    0    0    0    0    0    0    
227    7.381342584290782    0    0    0    0    0    0    0    
228    7.455177928527799    0    0    0    0    0    0    0    
229    7.928851058312293    0    0    0    0    0    0    0    
230    7.835573046655472    0    0    0    0    0    0    0    
231    8.073398016108227    0    0    0    0    0    0    0    
232    7.734810250256778    0    0    0    0    0    0    0    
233    8.041159649934052    0    0    0    0    0    0    0    
234    7.865753694286609    0    0    0    0    0    0    0    
235    7.9309465623657855    0    0    0    0    0    0    0    
236    8.117251421415888    0    0    0    0    0    0    0    
237    7.952598099191305    0    0    0    0    0    0    0    
238    7.677610645526395    0    0    0    0    0    0    0    
239    8.145580740699815    0    0    0    0    0    0    0    
240    7.813926524743365    0    0    0    0    0    0    0    
241    7.85224756179226    0    0    0    0    0    0    0    
242    8.114415935480437    0    0    0    0    0    0    0    
243    7.949842736308063    0    0    0    0    0    0    0    
244    7.964580100932757    0    0    0    0    0    0    0    
245    8.052826842639158    0    0    0    0    0    0    0    
246    8.177637576728085    0    0    0    0    0    0    0    
247    8.255966431033448    0    0    0    0    0    0    0    
248    8.150926130483562    0    0    0    0    0    0    0    
249    7.514933904785783    0    0    0    0    0    0    0    
250    7.936383259352832    0    0    0    0    0    0    0    
251    8.133247939277776    0    0    0    0    0    0    0    
252    7.679944300223821    0    0    0    0    0    0    0    
253    7.8160649073355595    0    0    0    0    0    0    0    
254    7.788478893055884    0    0    0    0    0    0    0    
255    7.850351825377567    0    0    0    0    0    0    0    
256    7.675843769998476    0    0    0    0    0    0    0    
257    7.725734667133897    0    0    0    0    0    0    0    
258    7.68204200658433    0    0    0    0    0    0    0    
259    7.687541836351698    0    0    0    0    0    0    0    
260    8.005478357822684    0    0    0    0    0    0    0    
261    7.889655562644659    0    0    0    0    0    0    0    
262    7.843096701573723    0    0    0    0    0    0    0    
263    7.891597627357297    0    0    0    0    0    0    0    
264    7.72438768311039    0    0    0    0    0    0    0    
265    8.061076642605657    0    0    0    0    0    0    0    
266    7.798363264226544    0    0    0    0    0    0    0    
267    8.16794276675474    0    0    0    0    0    0    0    
268    7.864734196728311    0    0    0    0    0    0    0    
269    7.459560387713624    0    0    0    0    0    0    0    
270    8.068029709520745    0    0    0    0    0    0    0    
271    8.05465683903148    0    0    0    0    0    0    0    
272    7.996917032997097    0    0    0    0    0    0    0    
273    7.7894905000563    0    0    0    0    0    0    0    
274    7.434434855067444    0    0    0    0    0    0    0    
275    7.754275768257815    0    0    0    0    0    0    0    
276    7.88206732636807    0    0    0    0    0    0    0    
277    8.279636161382905    0    0    0    0    0    0    0    
278    7.963426880182475    0    0    0    0    0    0    0    
279    8.256219201739588    0    0    0    0    0    0    0    
280    7.940249573690753    0    0    0    0    0    0    0    
281    7.728943032859361    0    0    0    0    0    0    0    
282    8.038106402567832    0    0    0    0    0    0    0    
283    7.990653404064429    0    0    0    0    0    0    0    
284    7.559697738749306    0    0    0    0    0    0    0    
285    7.930324847992225    0    0    0    0    0    0    0    
286    7.513341929833954    0    0    0    0    0    0    0    
287    7.991632668026911    0    0    0    0    0    0    0    
288    8.014301918143007    0    0    0    0    0    0    0    
289    7.708100822885052    0    0    0    0    0    0    0    
290    8.313955686734742    0    0    0    0    0    0    0    
291    7.895202500916111    0    0    0    0    0    0    0    
292    7.925245550325577    0    0    0    0    0    0    0    
293    8.099852807827205    0    0    0    0    0    0    0    
294    7.6656119188135765    0    0    0    0    0    0    0    
295    7.903073469179807    0    0    0    0    0    0    0    
296    7.665721538784518    0    0    0    0    0    0    0    
297    8.1577051267531    0    0    0    0    0    0    0    
298    7.649310685090073    0    0    0    0    0    0    0    
299    7.893820460069833    0    0    0    0    0    0    0    
300    7.427378053224281    0    0    0    0    0    0    0    
301    7.831669391507439    0    0    0    0    0    0    0    
302    7.788356074320094    0    0    0    0    0    0    0    
303    7.76216773346817    0    0    0    0    0    0    0    
304    7.6965783305076    0    0    0    0    0    0    0    
305    7.9617062211814655    0    0    0    0    0    0    0    
306    7.9850987807866805    0    0    0    0    0    0    0    
307    7.8579306337897235    0    0    0    0    0    0    0    
308    8.00775815167921    0    0    0    0    0    0    0    
309    8.029746177188256    0    0    0    0    0    0    0    
310    8.009618177143976    0    0    0    0    0    0    0    
311    7.697677339955791    0    0    0    0    0    0    0    
312    7.93943553541916    0    0    0    0    0    0    0    
313    8.058832566668405    0    0    0    0    0    0    0    
314    7.5989513713010695    0    0    0    0    0    0    0    
315    7.743008579353176    0    0    0    0    0    0    0    
316    7.7331881890184295    0    0    0    0    0    0    0    
317    7.917471967800087    0    0    0    0    0    0    0    
318    7.7812574168616955    0    0    0    0    0    0    0    
319    7.891446163453757    0    0    0    0    0    0    0    
320    7.781537873405885    0    0    0    0    0    0    0    
321    7.8568830510639955    0    0    0    0    0    0    0    
322    7.770903024141491    0    0    0    0    0    0    0    
323    8.064103924861554    0    0    0    0    0    0    0    
324    7.670460498308275    0    0    0    0    0    0    0    
325    7.559073910931799    0    0    0    0    0    0    0    
326    7.898185084169766    0    0    0    0    0    0    0    
327    7.716736104330081    0    0    0    0    0    0    0    
328    7.73424728179252    0    0    0    0    0    0    0    
329    7.7307511998828975    0    0    0    0    0    0    0    
330    8.097251391191659    0    0    0    0    0    0    0    
331    7.8395911837430585    0    0    0    0    0    0    0    
332    7.575846278575906    0    0    0    0    0    0    0    
333    8.036742025672076    0    0    0    0    0    0    0    
334    7.7958229007843665    0    0    0    0    0    0    0    
335    7.738111402714538    0    0    0    0    0    0    0    
336    7.968792878515872    0    0    0    0    0    0    0    
337    8.04745035907833    0    0    0    0    0    0    0    
338    7.8237951786425715    0    0    0    0    0    0    0    
339    7.890088000602281    0    0    0    0    0    0    0    
340    7.953303222695928    0    0    0    0    0    0    0    
341    8.07283997041564    0    0    0    0    0    0    0    
342    7.91250325317651    0    0    0    0    0    0    0    
343    7.8596019714219665    0    0    0    0    0    0    0    
344    7.782129585291408    0    0    0    0    0    0    0    
345    7.758774595448989    0    0    0    0    0    0    0    
346    8.124780672646377    0    0    0    0    0    0    0    
347    7.55363140822213    0    0    0    0    0    0    0    
348    7.865827248783277    0    0    0    0    0    0    0    
349    7.685298807908968    0    0    0    0    0    0    0    
350    8.028721465880533    0    0    0    0    0    0    0    
351    7.379077995197292    0    0    0    0    0    0    0    
352    7.844163080625222    0    0    0    0    0    0    0    
353    7.783488289500288    0    0    0    0    0    0    0    
354    7.864186868699128    0    0    0    0    0    0    0    
355    7.963277875220014    0    0    0    0    0    0    0    
356    7.98178587445463    0    0    0    0    0    0    0    
357    7.45416238365434    0    0    0    0    0    0    0    
358    7.58812777809521    0    0    0    0    0    0    0    
359    8.224488879783008    0    0    0    0    0    0    0    
360    8.265188256026681    0    0    0    0    0    0    0    
361    7.911261648666206    0    0    0    0    0    0    0    
362    7.928252430630699    0    0    0    0    0    0    0    
363    7.553120462171667    0    0    0    0    0    0    0    
364    7.607879755001905    0    0    0    0    0    0    0    
365    7.9322562863689265    0    0    0    0    0    0    0    
366    7.871837912996017    0    0    0    0    0    0    0    
367    7.770805178199561    0    0    0    0    0    0    0    
368    7.561031690152417    0    0    0    0    0    0    0    
369    7.999247821420429    0    0    0    0    0    0    0    
370    7.840637474009132    0    0    0    0    0    0    0    
371    7.953872517361889    0    0    0    0    0    0    0    
372    8.084588147869225    0    0    0    0    0    0    0    
373    8.165983590805716    0    0    0    0    0    0    0    
374    8.064765987326735    0    0    0    0    0    0    0    
375    8.053896799060386    0    0    0    0    0    0    0    
376    7.524320879013324    0    0    0    0    0    0    0    
377    7.800671083649097    0    0    0    0    0    0    0    
378    8.145983848616963    0    0    0    0    0    0    0    
379    8.00798256595239    0    0    0    0    0    0    0    
380    7.736067789126676    0    0    0    0    0    0    0    
381    7.87408181212387    0    0    0    0    0    0    0    
382    7.9890874753737435    0    0    0    0    0    0    0    
383    8.227356073882845    0    0    0    0    0    0    0    
384    7.811584900471139    0    0    0    0    0    0    0    
385    8.257010450885495    0    0    0    0    0    0    0    
386    7.81159632291253    0    0    0    0    0    0    0    
387    7.826733576646479    0    0    0    0    0    0    0    
388    7.568269763824568    0    0    0    0    0    0    0    
389    7.584110466448168    0    0    0    0    0    0    0    
390    7.967229691935785    0    0    0    0    0    0    0    
391    7.41391174561216    0    0    0    0    0    0    0    
392    8.099443346786035    0    0    0    0    0    0    0    
393    7.609410878677942    0    0    0    0    0    0    0    
394    7.952008750154006    0    0    0    0    0    0    0    
395    7.668186353847176    0    0    0    0    0    0    0    
396    8.053043222920017    0    0    0    0    0    0    0    
397    7.387996680186764    0    0    0    0    0    0    0    
398    8.046090152393917    0    0    0    0    0    0    0    
399    8.330174050750209    0    0    0    0    0    0    0    
400    7.644239238889589    0    0    0    0    0    0    0    
401    7.886069926265733    0    0    0    0    0    0    0    
402    8.018780640071236    0    0    0    0    0    0    0    
403    7.787836579110438    0    0    0    0    0    0    0    
404    7.791594340351504    0    0    0    0    0    0    0    
405    7.738655396993313    0    0    0    0    0    0    0    
406    8.13214197401677    0    0    0    0    0    0    0    
407    8.041161987301619    0    0    0    0    0    0    0    
408    7.5394118019438    0    0    0    0    0    0    0    
409    8.221074002632772    0    0    0    0    0    0    0    
410    8.08294625018188    0    0    0    0    0    0    0    
411    7.796495326881526    0    0    0    0    0    0    0    
412    7.725683866425059    0    0    0    0    0    0    0    
413    8.256197280818505    0    0    0    0    0    0    0    
414    7.744524890050849    0    0    0    0    0    0    0    
415    7.772706463398661    0    0    0    0    0    0    0    
416    7.729796827791852    0    0    0    0    0    0    0    
417    7.687244709339698    0    0    0    0    0    0    0    
418    8.264096539904616    0    0    0    0    0    0    0    
419    8.229925629124972    0    0    0    0    0    0    0    
420    7.996980469177747    0    0    0    0    0    0    0    
421    7.720088540025867    0    0    0    0    0    0    0    
422    7.133713523814416    0    0    0    0    0    0    0    
423    8.052824681733142    0    0    0    0    0    0    0    
424    7.957881377173786    0    0    0    0    0    0    0    
425    7.636501784925351    0    0    0    0    0    0    0    
426    7.771856334258279    0    0    0    0    0    0    0    
427    7.816745989657859    0    0    0    0    0    0    0    
428    7.665166331202627    0    0    0    0    0    0    0    
429    7.874964270087987    0    0    0    0    0    0    0    
430    7.859305816670531    0    0    0    0    0    0    0    
431    7.818834429583405    0    0    0    0    0    0    0    
432    7.900218827634149    0    0    0    0    0    0    0    
433    8.24185739729677    0    0    0    0    0    0    0    
434    7.770075971894238    0    0    0    0    0    0    0    
435    7.90497369386976    0    0    0    0    0    0    0    
436    8.079472717157682    0    0    0    0    0    0    0    
437    7.831214902102199    0    0    0    0    0    0    0    
438    7.570458991091459    0    0    0    0    0    0    0    
439    8.000712110320228    0    0    0    0    0    0    0    
440    7.658645890216421    0    0    0    0    0    0    0    
441    8.213097694904413    0    0    0    0    0    0    0    
442    7.926130283465875    0    0    0    0    0    0    0    
443    8.02154493461752    0    0    0    0    0    0    0    
444    7.8199557663982056    0    0    0    0    0    0    0    
445    7.635675425798311    0    0    0    0    0    0    0    
446    7.817926321897527    0    0    0    0    0    0    0    
447    8.175605211375721    0    0    0    0    0    0    0    
448    7.585124319025267    0    0    0    0    0    0    0    
449    7.817040803723906    0    0    0    0    0    0    0    
450    8.06853233789686    0    0    0    0    0    0    0    
451    7.77885023368374    0    0    0    0    0    0    0    
452    7.578086295797768    0    0    0    0    0    0    0    
453    7.834589310521639    0    0    0    0    0    0    0    
454    8.001653803702782    0    0    0    0    0    0    0    
455    7.910548107720185    0    0    0    0    0    0    0    
456    7.858446548499113    0    0    0    0    0    0    0    
457    7.669770767504571    0    0    0    0    0    0    0    
458    7.9878391531161945    0    0    0    0    0    0    0    
459    7.870880749089738    0    0    0    0    0    0    0    