! OpenFAST Deterministic Wind File
#
# Comment lines begin with "!" or "#" or "%", then the data lines must contain the following columns:
#
# If there are only 8 columns, upflow is assumed to be 0.
#
# Parameters are interpolated linearly between time steps; using nearest neighbor before the first time 
# listed in this file and after the last time listed in the file. 
#
! Time     Wind    Wind    Vertical    Horiz.      Pwr.Law     Lin.Vert.   Gust     Upflow
!          Speed   Dir     Speed       Shear       Vert.Shr    Shear       Speed    Angle 
! (sec)    (m/s)   (Deg)   (m/s)                                            (m/s)   (deg)
0    5.737944755085766    0    0    0    0    0    0    0    
1    5.909395174958937    0    0    0    0    0    0    0    
2    5.957901116408708    0    0    0    0    0    0    0    
3    5.956951827457312    0    0    0    0    0    0    0    
4    5.912161706921203    0    0    0    0    0    0    0    
5    5.9060640258171615    0    0    0    0    0    0    0    
6    5.566815958589928    0    0    0    0    0    0    0    
7    6.1485399197431105    0    0    0    0    0    0    0    
8    5.734410809372688    0    0    0    0    0    0    0    
9    5.957756663518035    0    0    0    0    0    0    0    
10    5.9916985782924925    0    0    0    0    0    0    0    
11    5.6890634466627645    0    0    0    0    0    0    0    
12    5.969183883561955    0    0    0    0    0    0    0    
13    5.803156695254601    0    0    0    0    0    0    0    
14    5.9874792158155925    0    0    0    0    0    0    0    
15    5.902793945191384    0    0    0    0    0    0    0    
16    6.16291798764182    0    0    0    0    0    0    0    
17    5.787469962119609    0    0    0    0    0    0    0    
18    5.604509807539955    0    0    0    0    0    0    0    
19    5.344388937341313    0    0    0    0    0    0    0    
20    5.664143741066503    0    0    0    0    0    0    0    
21    5.9280096359314856    0    0    0    0    0    0    0    
22    5.949544266045022    0    0    0    0    0    0    0    
23    5.553176765838911    0    0    0    0    0    0    0    
24    5.80169551291648    0    0    0    0    0    0    0    
25    5.82066914653412    0    0    0    0    0    0    0    
26    5.579600278350021    0    0    0    0    0    0    0    
27    5.596159990528275    0    0    0    0    0    0    0    
28    5.897424773847081    0    0    0    0    0    0    0    
29    5.821940953299637    0    0    0    0    0    0    0    
30    5.730932763350657    0    0    0    0    0    0    0    
31    5.721595154883508    0    0    0    0    0    0    0    
32    6.241837311319191    0    0    0    0    0    0    0    
33    5.631185459376067    0    0    0    0    0    0    0    
34    5.984725471028996    0    0    0    0    0    0    0    
35    5.87971174986265    0    0    0    0    0    0    0    
36    5.979603899843596    0    0    0    0    0    0    0    
37    5.755460487627824    0    0    0    0    0    0    0    
38    5.789680041469014    0    0    0    0    0    0    0    
39    5.7939126660345295    0    0    0    0    0    0    0    
40    5.681281003228657    0    0    0    0    0    0    0    
41    5.993700706644114    0    0    0    0    0    0    0    
42    6.051269542584908    0    0    0    0    0    0    0    
43    6.02782645236863    0    0    0    0    0    0    0    
44    5.5169226073831785    0    0    0    0    0    0    0    
45    6.028847067150452    0    0    0    0    0    0    0    
46    5.614860704648209    0    0    0    0    0    0    0    
47    5.802116870806181    0    0    0    0    0    0    0    
48    5.659194458696615    0    0    0    0    0    0    0    
49    5.607794452856455    0    0    0    0    0    0    0    
50    5.681294397510133    0    0    0    0    0    0    0    
51    5.6691689767355875    0    0    0    0    0    0    0    
52    5.917288711703086    0    0    0    0    0    0    0    
53    5.834213435635281    0    0    0    0    0    0    0    
54    5.944112615060357    0    0    0    0    0    0    0    
55    5.709993317282563    0    0    0    0    0    0    0    
56    5.793655335749191    0    0    0    0    0    0    0    
57    5.781234730164584    0    0    0    0    0    0    0    
58    5.605484715093345    0    0    0    0    0    0    0    
59    5.704243698752808    0    0    0    0    0    0    0    
60    5.6361556848145655    0    0    0    0    0    0    0    
61    5.790045533625585    0    0    0    0    0    0    0    
62    5.568623730433693    0    0    0    0    0    0    0    
63    6.063518742226542    0    0    0    0    0    0    0    
64    5.797142755701658    0    0    0    0    0    0    0    
65    5.68894693283512    0    0    0    0    0    0    0    
66    5.971376552288268    0    0    0    0    0    0    0    
67    6.0826981930057    0    0    0    0    0    0    0    
68    5.571259988823136    0    0    0    0    0    0    0    
69    5.973431555132533    0    0    0    0    0    0    0    
70    5.854834598020933    0    0    0    0    0    0    0    
71    5.594613269710958    0    0    0    0    0    0    0    
72    6.072583189788503    0    0    0    0    0    0    0    
73    5.790101125349361    0    0    0    0    0    0    0    
74    6.144214750550557    0    0    0    0    0    0    0    
75    6.214287054584651    0    0    0    0    0    0    0    
76    5.992289434547742    0    0    0    0    0    0    0    
77    5.925430143046476    0    0    0    0    0    0    0    
78    5.928754395430048    0    0    0    0    0    0    0    
79    5.6494622596394635    0    0    0    0    0    0    0    
80    5.94268832998923    0    0    0    0    0    0    0    
81    5.533881339523737    0    0    0    0    0    0    0    
82    6.059015433853265    0    0    0    0    0    0    0    
83    5.580149561630223    0    0    0    0    0    0    0    
84    5.741122199544126    0    0    0    0    0    0    0    
85    5.700628462253373    0    0    0    0    0    0    0    
86    5.94872294401724    0    0    0    0    0    0    0    
87    5.626681579947706    0    0    0    0    0    0    0    
88    5.749492735556692    0    0    0    0    0    0    0    
89    5.960488675668638    0    0    0    0    0    0    0    
90    5.731629238243254    0    0    0    0    0    0    0    
91    6.10437273252741    0    0    0    0    0    0    0    
92    5.71789743073485    0    0    0    0    0    0    0    
93    5.59890115111817    0    0    0    0    0    0    0    
94    6.053077029618498    0    0    0    0    0    0    0    
95    6.059618935583592    0    0    0    0    0    0    0    
96    5.687517116892119    0    0    0    0    0    0    0    
97    5.693429369639443    0    0    0    0    0    0    0    
98    5.630355028708618    0    0    0    0    0    0    0    
99    5.455313650016154    0    0    0    0    0    0    0    
100    5.868424854030573    0    0    0    0    0    0    0    
101    5.765167845683976    0    0    0    0    0    0    0    
102    6.010712553361579    0    0    0    0    0    0    0    
103    5.455848039488576    0    0    0    0    0    0    0    
104    5.963003591217874    0    0    0    0    0    0    0    
105    5.904578140105031    0    0    0    0    0    0    0    
106    5.844837889374158    0    0    0    0    0    0    0    
107    5.4957419588027765    0    0    0    0    0    0    0    
108    5.4214931091616085    0    0    0    0    0    0    0    
109    6.135696652956517    0    0    0    0    0    0    0    
110    5.566332001987722    0    0    0    0    0    0    0    
111    6.024638772039194    0    0    0    0    0    0    0    
112    5.9003120703494805    0    0    0    0    0    0    0    
113    5.84996027765745    0    0    0    0    0    0    0    
114    5.95222506864304    0    0    0    0    0    0    0    
115    6.099054635613396    0    0    0    0    0    0    0    
116    5.513517396820339    0    0    0    0    0    0    0    
117    5.452517766246208    0    0    0    0    0    0    0    
118    5.9208570535967375    0    0    0    0    0    0    0    
119    5.484111218954594    0    0    0    0    0    0    0    
120    6.039898893763533    0    0    0    0    0    0    0    
121    5.630606158735383    0    0    0    0    0    0    0    
122    5.715480889175889    0    0    0    0    0    0    0    
123    6.099375726335308    0    0    0    0    0    0    0    
124    6.322770604522218    0    0    0    0    0    0    0    
125    6.0902128798469075    0    0    0    0    0    0    0    
126    5.974302454387587    0    0    0    0    0    0    0    
127    5.6569044712520125    0    0    0    0    0    0    0    
128    5.921314900551845    0    0    0    0    0    0    0    
129    5.746485431196326    0    0    0    0    0    0    0    
130    5.750983635494893    0    0    0    0    0    0    0    
131    6.208856590399583    0    0    0    0    0    0    0    
132    5.79753570939364    0    0    0    0    0    0    0    
133    5.775498512329724    0    0    0    0    0    0    0    
134    5.680949754031355    0    0    0    0    0    0    0    
135    5.801898902821565    0    0    0    0    0    0    0    
136    5.9591144748853875    0    0    0    0    0    0    0    
137    5.745042048599509    0    0    0    0    0    0    0    
138    5.382715458706715    0    0    0    0    0    0    0    
139    6.051561500163445    0    0    0    0    0    0    0    
140    5.893398110883479    0    0    0    0    0    0    0    
141    6.072554562590015    0    0    0    0    0    0    0    
142    5.635126133633869    0    0    0    0    0    0    0    
143    5.815082007825023    0    0    0    0    0    0    0    
144    5.821484757965159    0    0    0    0    0    0    0    
145    5.903544749109796    0    0    0    0    0    0    0    
146    5.768117499623788    0    0    0    0    0    0    0    
147    5.993393613514448    0    0    0    0    0    0    0    
148    5.735415756685398    0    0    0    0    0    0    0    
149    5.848358058319017    0    0    0    0    0    0    0    
150    5.745600786443693    0    0    0    0    0    0    0    
151    5.643056200361101    0    0    0    0    0    0    0    
152    5.98232126120289    0    0    0    0    0    0    0    
153    5.7879220231051765    0    0    0    0    0    0    0    
154    5.9589273018744535    0    0    0    0    0    0    0    
155    5.700824132288158    0    0    0    0    0    0    0    
156    5.892612564456237    0    0    0    0    0    0    0    
157    6.064595016860255    0    0    0    0    0    0    0    
158    6.041952528418123    0    0    0    0    0    0    0    
159    5.90603190431477    0    0    0    0    0    0    0    
160    5.77093519836532    0    0    0    0    0    0    0    
161    5.722429115327264    0    0    0    0    0    0    0    
162    5.904008047618416    0    0    0    0    0    0    0    
163    5.700631016746075    0    0    0    0    0    0    0    
164    5.62329198710505    0    0    0    0    0    0    0    
165    5.397649206676482    0    0    0    0    0    0    0    
166    5.987440929866617    0    0    0    0    0    0    0    
167    5.745326466662668    0    0    0    0    0    0    0    
168    5.731345645830635    0    0    0    0    0    0    0    
169    5.848662918720467    0    0    0    0    0    0    0    
170    6.000388877580709    0    0    0    0    0    0    0    
171    5.475850160239254    0    0    0    0    0    0    0    
172    5.694522102443701    0    0    0    0    0    0    0    
173    5.495159638941279    0    0    0    0    0    0    0    
174    5.875823578664221    0    0    0    0    0    0    0    
175    5.847125157428076    0    0    0    0    0    0    0    
176    5.8235779009504745    0    0    0    0    0    0    0    
177    5.739525412351652    0    0    0    0    0    0    0    
178    5.778580204317834    0    0    0    0    0    0    0    
179    5.632796963409111    0    0    0    0    0    0    0    
180    5.681321352621419    0    0    0    0    0    0    0    
181    5.521635362734996    0    0    0    0    0    0    0    
182    5.468447352283483    0    0    0    0    0    0    0    
183    6.0564795972983925    0    0    0    0    0    0    0    
184    5.987278133252428    0    0    0    0    0    0    0    
185    5.623867193380954    0    0    0    0    0    0    0    
186    5.886459182829115    0    0    0    0    0    0    0    
187    5.753302714485606    0    0    0    0    0    0    0    
188    6.02626527935262    0    0    0    0    0    0    0    
189    6.030704627688982    0    0    0    0    0    0    0    
190    5.690621920728132    0    0    0    0    0    0    0    
191    5.698030939296197    0    0    0    0    0    0    0    
192    5.723684060193957    0    0    0    0    0    0    0    
193    5.69461676875    0    0    0    0    0    0    0    
194    5.576051681761477    0    0    0    0    0    0    0    
195    5.4908937269433835    0    0    0    0    0    0    0    
196    5.750694692029398    0    0    0    0    0    0    0    
197    5.764343144338718    0    0    0    0    0    0    0    
198    6.074630455725673    0    0    0    0    0    0    0    
199    5.92116044674684    0    0    0    0    0    0    0    
200    5.369449935488217    0    0    0    0    0    0    0    
201    6.035070518651206    0    0    0    0    0    0    0    
202    5.8086563608312884    0    0    0    0    0    0    0    
203    5.934855965781165    0    0    0    0    0    0    0    
204    6.017420070599377    0    0    0    0    0    0    0    
205    5.745095094635171    0    0    0    0    0    0    0    
206    5.292642788166712    0    0    0    0    0    0    0    
207    5.453715613691604    0    0    0    0    0    0    0    
208    5.785951287523026    0    0    0    0    0    0    0    
209    5.743474146811551    0    0    0    0    0    0    0    
210    5.853481769929372    0    0    0    0    0    0    0    
211    5.921788470893021    0    0    0    0    0    0    0    
212    5.921258887972793    0    0    0    0    0    0    0    
213    5.957195385967402    0    0    0    0    0    0    0    
214    5.520850789627053    0    0    0    0    0    0    0    
215    6.215633991828527    0    0    0    0    0    0    0    
216    5.926365986010498    0    0    0    0    0    0    0    
217    5.628727811311288    0    0    0    0    0    0    0    
218    5.79191090841106    0    0    0    0    0    0    0    
219    5.743296237863982    0    0    0    0    0    0    0    
220    5.78191093436575    0    0    0    0    0    0    0    
221    5.98217890035006    0    0    0    0    0    0    0    
222    5.584318910026608    0    0    0    0    0    0    0    
223    5.85753430127372    0    0    0    0    0    0    0    
224    5.966586326821607    0    0    0    0    0    0    0    
225    5.868390208672713    0    0    0    0    0    0    0    
226    5.911681717876547    0    0    0    0    0    0    0    
227    5.761011910771926    0    0    0    0    0    0    0    
228    5.773263254153628    0    0    0    0    0    0    0    
229    5.790462768482991    0    0    0    0    0    0    0    
230    5.6390300395123445    0    0    0    0    0    0    0    
231    5.836262854742062    0    0    0    0    0    0    0    
232    6.001542802630653    0    0    0    0    0    0    0    
233    5.92106683918398    0    0    0    0    0    0    0    
234    5.622891256373331    0    0    0    0    0    0    0    
235    6.258885393017686    0    0    0    0    0    0    0    
236    5.53431542215469    0    0    0    0    0    0    0    
237    6.18770609653678    0    0    0    0    0    0    0    
238    5.757253227974374    0    0    0    0    0    0    0    
239    5.626179510469415    0    0    0    0    0    0    0    
240    5.8238414219481776    0    0    0    0    0    0    0    
241    5.882907089950061    0    0    0    0    0    0    0    
242    5.893833609566249    0    0    0    0    0    0    0    
243    5.956873804780856    0    0    0    0    0    0    0    
244    5.632407068922596    0    0    0    0    0    0    0    
245    5.8890535190775894    0    0    0    0    0    0    0    
246    5.7783769026379055    0    0    0    0    0    0    0    
247    6.0314593601469975    0    0    0    0    0    0    0    
248    5.998248976414785    0    0    0    0    0    0    0    
249    5.744718273697912    0    0    0    0    0    0    0    
250    5.9261497689384175    0    0    0    0    0    0    0    
251    5.989064628681011    0    0    0    0    0    0    0    
252    5.785192076001509    0    0    0    0    0    0    0    
253    5.9449276312298815    0    0    0    0    0    0    0    
254    6.373562677976077    0    0    0    0    0    0    0    
255    5.822359622343004    0    0    0    0    0    0    0    
256    5.682404619271716    0    0    0    0    0    0    0    
257    6.178582610996471    0    0    0    0    0    0    0    
258    5.601690964334424    0    0    0    0    0    0    0    
259    5.929490336180411    0    0    0    0    0    0    0    
260    5.755845210812947    0    0    0    0    0    0    0    
261    6.057629192936307    0    0    0    0    0    0    0    
262    5.815883092730022    0    0    0    0    0    0    0    
263    5.924656392479527    0    0    0    0    0    0    0    
264    5.807002274654739    0    0    0    0    0    0    0    
265    5.60638890590585    0    0    0    0    0    0    0    
266    5.489589033513825    0    0    0    0    0    0    0    
267    5.750164403648478    0    0    0    0    0    0    0    
268    6.096871436855773    0    0    0    0    0    0    0    
269    5.489801495556803    0    0    0    0    0    0    0    
270    5.6949089934651935    0    0    0    0    0    0    0    
271    6.0356512719053    0    0    0    0    0    0    0    
272    5.31426108348696    0    0    0    0    0    0    0    
273    5.622860248413792    0    0    0    0    0    0    0    
274    5.697462694510333    0    0    0    0    0    0    0    
275    5.7387155635271485    0    0    0    0    0    0    0    
276    6.2164991873924516    0    0    0    0    0    0    0    
277    5.820634706426684    0    0    0    0    0    0    0    
278    5.850163972029077    0    0    0    0    0    0    0    
279    5.731833112269267    0    0    0    0    0    0    0    
280    5.846266137954786    0    0    0    0    0    0    0    
281    5.782033224148495    0    0    0    0    0    0    0    
282    6.056687787819185    0    0    0    0    0    0    0    
283    6.055380639828879    0    0    0    0    0    0    0    
284    5.994679767853732    0    0    0    0    0    0    0    
285    5.963938228161026    0    0    0    0    0    0    0    
286    5.978984148415227    0    0    0    0    0    0    0    
287    5.500619456545384    0    0    0    0    0    0    0    
288    5.519772384956869    0    0    0    0    0    0    0    
289    5.848449047527567    0    0    0    0    0    0    0    
290    5.936698932668951    0    0    0    0    0    0    0    
291    5.910916512042298    0    0    0    0    0    0    0    
292    5.890462222049498    0    0    0    0    0    0    0    
293    5.6845968628051855    0    0    0    0    0    0    0    
294    5.75927095882582    0    0    0    0    0    0    0    
295    5.775990295917183    0    0    0    0    0    0    0    
296    6.173014119262205    0    0    0    0    0    0    0    
297    5.728642803929795    0    0    0    0    0    0    0    
298    5.807024705270771    0    0    0    0    0    0    0    
299    5.500008649885059    0    0    0    0    0    0    0    
300    5.777401227386535    0    0    0    0    0    0    0    
301    6.238083963465862    0    0    0    0    0    0    0    
302    5.802892334597093    0    0    0    0    0    0    0    
303    5.634261258414651    0    0    0    0    0    0    0    
304    6.040742412369202    0    0    0    0    0    0    0    
305    5.656493324621744    0    0    0    0    0    0    0    
306    5.744180156849803    0    0    0    0    0    0    0    
307    5.880351970330625    0    0    0    0    0    0    0    
308    5.859354685760425    0    0    0    0    0    0    0    
309    6.316120621673042    0    0    0    0    0    0    0    
310    5.972168201810022    0    0    0    0    0    0    0    
311    5.670267392179787    0    0    0    0    0    0    0    
312    5.811879526517202    0    0    0    0    0    0    0    
313    5.573469750237287    0    0    0    0    0    0    0    
314    5.75411325403325    0    0    0    0    0    0    0    
315    5.800088174404821    0    0    0    0    0    0    0    
316    6.048034912878441    0    0    0    0    0    0    0    
317    5.980138049799101    0    0    0    0    0    0    0    
318    5.763254322017198    0    0    0    0    0    0    0    
319    5.697686211998056    0    0    0    0    0    0    0    
320    6.191355407948753    0    0    0    0    0    0    0    
321    5.924760743611746    0    0    0    0    0    0    0    
322    5.585184826177285    0    0    0    0    0    0    0    
323    5.9906911486755074    0    0    0    0    0    0    0    
324    5.673771781734796    0    0    0    0    0    0    0    
325    5.7815029788623225    0    0    0    0    0    0    0    
326    6.023435474273793    0    0    0    0    0    0    0    
327    6.3691324897936825    0    0    0    0    0    0    0    
328    5.830830856920476    0    0    0    0    0    0    0    
329    5.71898548066817    0    0    0    0    0    0    0    
330    5.8496473285110495    0    0    0    0    0    0    0    
331    5.52552506779327    0    0    0    0    0    0    0    
332    5.9054797846620195    0    0    0    0    0    0    0    
333    6.0573421508103005    0    0    0    0    0    0    0    
334    5.813237262302952    0    0    0    0    0    0    0    
335    5.92791996356537    0    0    0    0    0    0    0    
336    5.503307536809944    0    0    0    0    0    0    0    
337    5.663369026177317    0    0    0    0    0    0    0    
338    5.467656063207897    0    0    0    0    0    0    0    
339    5.90149120909672    0    0    0    0    0    0    0    
340    6.000736403303309    0    0    0    0    0    0    0    
341    5.839653434762129    0    0    0    0    0    0    0    
342    5.782558341449413    0    0    0    0    0    0    0    
343    5.4972548760982525    0    0    0    0    0    0    0    
344    5.921874499308383    0    0    0    0    0    0    0    
345    5.944693066899184    0    0    0    0    0    0    0    
346    5.809472104873761    0    0    0    0    0    0    0    
347    5.983872083188687    0    0    0    0    0    0    0    
348    5.757935812161926    0    0    0    0    0    0    0    
349    5.989135036329632    0    0    0    0    0    0    0    
350    5.5571042896559835    0    0    0    0    0    0    0    
351    5.859946427917938    0    0    0    0    0    0    0    
352    5.692626846139626    0    0    0    0    0    0    0    
353    5.744823197137523    0    0    0    0    0    0    0    
354    5.657959013788287    0    0    0    0    0    0    0    
355    5.662562420237325    0    0    0    0    0    0    0    
356    5.637610068522398    0    0    0    0    0    0    0    
357    5.969546138281976    0    0    0    0    0    0    0    
358    5.740665447852352    0    0    0    0    0    0    0    
359    5.7898281988996985    0    0    0    0    0    0    0    
360    5.735564130546664    0    0    0    0    0    0    0    
361    5.887092534333018    0    0    0    0    0    0    0    
362    5.974824545077251    0    0    0    0    0    0    0    
363    5.560361685693911    0    0    0    0    0    0    0    
364    5.916054937867475    0    0    0    0    0    0    0    
365    5.798123621663812    0    0    0    0    0    0    0    
366    5.83979513963427    0    0    0    0    0    0    0    
367    5.559406910292873    0    0    0    0    0    0    0    
368    5.727798736813248    0    0    0    0    0    0    0    
369    5.58700492597049    0    0    0    0    0    0    0    
370    5.652435932312591    0    0    0    0    0    0    0    
371    5.595604287781604    0    0    0    0    0    0    0    
372    5.950699177881882    0    0    0    0    0    0    0    
373    5.1607957450922965    0    0    0    0    0    0    0    
374    5.722585014814824    0    0    0    0    0    0    0    
375    5.947750618679642    0    0    0    0    0    0    0    
376    6.068419286711693    0    0    0    0    0    0    0    
377    5.826642930346651    0    0    0    0    0    0    0    
378    5.884297670614017    0    0    0    0    0    0    0    
379    5.578821227387494    0    0    0    0    0    0    0    
380    5.999841989084523    0    0    0    0    0    0    0    
381    5.9696716818174504    0    0    0    0    0    0    0    
382    6.017612770528425    0    0    0    0    0    0    0    
383    5.605889615890125    0    0    0    0    0    0    0    
384    5.49937644620122    0    0    0    0    0    0    0    
385    5.446213509100581    0    0    0    0    0    0    0    
386    5.797382495488961    0    0    0    0    0    0    0    
387    5.973371190058983    0    0    0    0    0    0    0    
388    5.966743570712345    0    0    0    0    0    0    0    
389    5.389631596114885    0    0    0    0    0    0    0    
390    5.74923398948855    0    0    0    0    0    0    0    
391    5.893539937987101    0    0    0    0    0    0    0    
392    5.9171363684543214    0    0    0    0    0    0    0    
393    5.913082383021645    0    0    0    0    0    0    0    
394    5.685399220343845    0    0    0    0    0    0    0    
395    6.066215515087158    0    0    0    0    0    0    0    
396    5.697015948811047    0    0    0    0    0    0    0    
397    5.8249315981918945    0    0    0    0    0    0    0    
398    5.7542643471525885    0    0    0    0    0    0    0    
399    5.543183601966175    0    0    0    0    0    0    0    
400    5.445887858711625    0    0    0    0    0    0    0    
401    5.930971279749469    0    0    0    0    0    0    0    
402    5.819846068790698    0    0    0    0    0    0    0    
403    5.7702356371904004    0    0    0    0    0    0    0    
404    5.682420068270507    0    0    0    0    0    0    0    
405    5.998158043750769    0    0    0    0    0    0    0    
406    5.911962159762164    0    0    0    0    0    0    0    
407    5.653682162235646    0    0    0    0    0    0    0    
408    5.839509171892575    0    0    0    0    0    0    0    
409    5.70010387692741    0    0    0    0    0    0    0    
410    5.697083849308667    0    0    0    0    0    0    0    
411    6.00973051854761    0    0    0    0    0    0    0    
412    5.691914868261809    0    0    0    0    0    0    0    
413    5.853756516641267    0    0    0    0    0    0    0    
414    6.073152696459675    0    0    0    0    0    0    0    
415    5.749491237932242    0    0    0    0    0    0    0    
416    6.052632025354976    0    0    0    0    0    0    0    
417    5.650893148456502    0    0    0    0    0    0    0    
418    5.86972959041636    0    0    0    0    0    0    0    
419    5.57338831130064    0    0    0    0    0    0    0    
420    5.800845939668501    0    0    0    0    0    0    0    
421    5.926925646436867    0    0    0    0    0    0    0    
422    5.669407582763824    0    0    0    0    0    0    0    
423    5.995603068182982    0    0    0    0    0    0    0    
424    5.559202465445494    0    0    0    0    0    0    0    
425    6.103246745144839    0    0    0    0    0    0    0    
426    6.0620532272385175    0    0    0    0    0    0    0    
427    6.091380074578668    0    0    0    0    0    0    0    
428    5.81061420074854    0    0    0    0    0    0    0    
429    5.853106550291652    0    0    0    0    0    0    0    
430    5.658622295854703    0    0    0    0    0    0    0    
431    5.93168956007978    0    0    0    0    0    0    0    
432    6.169770131371012    0    0    0    0    0    0    0    
433    5.44342783892907    0    0    0    0    0    0    0    
434    6.034195379554427    0    0    0    0    0    0    0    
435    5.774446322091746    0    0    0    0    0    0    0    
436    5.727932411553947    0    0    0    0    0    0    0    
437    5.519722344704903    0    0    0    0    0    0    0    
438    5.860136189658743    0    0    0    0    0    0    0    
439    5.693205140302124    0    0    0    0    0    0    0    
440    5.888997248957381    0    0    0    0    0    0    0    
441    5.790503139710753    0    0    0    0    0    0    0    
442    6.271141472876392    0    0    0    0    0    0    0    
443    5.769901778086905    0    0    0    0    0    0    0    
444    5.947003324275913    0    0    0    0    0    0    0    
445    5.8499271676055455    0    0    0    0    0    0    0    
446    5.862697143320934    0    0    0    0    0    0    0    
447    5.619710367639727    0    0    0    0    0    0    0    
448    5.774576973220886    0    0    0    0    0    0    0    
449    5.710486678719042    0    0    0    0    0    0    0    
450    6.062644425138989    0    0    0    0    0    0    0    
451    5.514772633330384    0    0    0    0    0    0    0    
452    6.051638863074214    0    0    0    0    0    0    0    
453    6.203122456202541    0    0    0    0    0    0    0    
454    5.722488985164595    0    0    0    0    0    0    0    
455    5.7081420142764525    0    0    0    0    0    0    0    
456    5.980969875220713    0    0    0    0    0    0    0    
457    5.610455354525729    0    0    0    0    0    0    0    
458    5.623529888543318    0    0    0    0    0    0    0    
459    5.516088221010864    0    0    0    0    0    0    0    