
This hub-height turbulence-parameter file was generated by TurbSim (from OpenFAST-v3.5.3) on 11-Dec-2024 at 14:34:37.

   Time      U       Uh       Ut        V        W        u'       v'       w'      u'w'     u'v'     v'w'     TKE      CTKE
   0.00   16.233   16.233   16.236   -0.061    0.279    0.122   -0.061    0.279    0.034   -0.007   -0.017    0.048    0.019
   0.50   16.572   16.574   16.575    0.235    0.250    0.461    0.235    0.250    0.115    0.108    0.059    0.165    0.084
   1.00   16.609   16.609   16.618    0.088    0.551    0.498    0.088    0.551    0.275    0.044    0.049    0.280    0.141
   1.50   16.890   16.903   16.906   -0.653    0.327    0.779   -0.653    0.327    0.255   -0.509   -0.214    0.570    0.304
   2.00   16.778   16.797   16.801   -0.799    0.397    0.667   -0.799    0.397    0.265   -0.533   -0.317    0.621    0.337
   2.50   16.667   16.669   16.670   -0.207    0.234    0.556   -0.207    0.234    0.130   -0.115   -0.048    0.204    0.090
   3.00   16.470   16.471   16.472   -0.182    0.142    0.359   -0.182    0.142    0.051   -0.065   -0.026    0.091    0.043
   3.50   16.292   16.295   16.295   -0.302   -0.111    0.181   -0.302   -0.111   -0.020   -0.055    0.034    0.068    0.034
   4.00   16.492   16.520   16.521   -0.969   -0.124    0.381   -0.969   -0.124   -0.047   -0.369    0.120    0.550    0.195
   4.50   16.214   16.244   16.244   -0.984   -0.102    0.103   -0.984   -0.102   -0.010   -0.101    0.100    0.494    0.071
   5.00   15.886   15.927   15.927   -1.138    0.002   -0.225   -1.138    0.002   -0.001    0.256   -0.003    0.673    0.128
   5.50   16.084   16.091   16.092   -0.470   -0.204   -0.027   -0.470   -0.204    0.005    0.013    0.096    0.132    0.048
   6.00   16.332   16.338   16.341   -0.471   -0.298    0.221   -0.471   -0.298   -0.066   -0.104    0.140    0.180    0.093
   6.50   16.003   16.008   16.009   -0.377   -0.226   -0.108   -0.377   -0.226    0.024    0.041    0.085    0.102    0.049
   7.00   15.880   15.881   15.884   -0.179   -0.341   -0.232   -0.179   -0.341    0.079    0.041    0.061    0.101    0.054
   7.50   15.792   15.794   15.794   -0.204   -0.018   -0.319   -0.204   -0.018    0.006    0.065    0.004    0.072    0.033
   8.00   15.808   15.821   15.834   -0.627   -0.649   -0.303   -0.627   -0.649    0.196    0.190    0.407    0.453    0.245
   8.50   16.106   16.116   16.135   -0.556   -0.795   -0.005   -0.556   -0.795    0.004    0.003    0.442    0.470    0.221
   9.00   16.102   16.114   16.133   -0.622   -0.783   -0.009   -0.622   -0.783    0.007    0.006    0.487    0.500    0.243
   9.50   15.809   15.814   15.843   -0.369   -0.964   -0.302   -0.369   -0.964    0.291    0.111    0.356    0.578    0.236
  10.00   16.412   16.418   16.423   -0.439   -0.379    0.301   -0.439   -0.379   -0.114   -0.132    0.166    0.214    0.121
  10.50   16.466   16.467   16.467    0.144   -0.064    0.355    0.144   -0.064   -0.023    0.051   -0.009    0.076    0.028
  11.00   16.004   16.011   16.011   -0.465    0.091   -0.107   -0.465    0.091   -0.010    0.050   -0.042    0.118    0.033
  11.50   15.647   15.678   15.684   -0.990   -0.408   -0.464   -0.990   -0.408    0.189    0.459    0.404    0.681    0.320
  12.00   15.629   15.638   15.642   -0.543   -0.344   -0.482   -0.543   -0.344    0.166    0.262    0.187    0.323    0.181
  12.50   16.102   16.105   16.114   -0.308    0.555   -0.010   -0.308    0.555   -0.005    0.003   -0.171    0.202    0.086
  13.00   15.793   15.798   15.824   -0.418    0.893   -0.318   -0.418    0.893   -0.284    0.133   -0.373    0.537    0.244
  13.50   15.621   15.629   15.636   -0.510    0.464   -0.490   -0.510    0.464   -0.227    0.250   -0.236    0.358    0.206
  14.00   15.506   15.507   15.507   -0.097   -0.023   -0.605   -0.097   -0.023    0.014    0.058    0.002    0.188    0.030
  14.50   15.345   15.359   15.359    0.662   -0.017   -0.766    0.662   -0.017    0.013   -0.507   -0.011    0.513    0.254
  15.00   15.784   15.799   15.799    0.674   -0.171   -0.327    0.674   -0.171    0.056   -0.220   -0.115    0.295    0.127
  15.50   15.347   15.350   15.350    0.309    0.053   -0.764    0.309    0.053   -0.040   -0.236    0.016    0.341    0.120
  16.00   15.201   15.201   15.201   -0.002    0.021   -0.910   -0.002    0.021   -0.019    0.002   -0.000    0.414    0.009
  16.50   14.648   14.650   14.652   -0.238   -0.244   -1.463   -0.238   -0.244    0.357    0.348    0.058    1.129    0.251
  17.00   14.882   14.882   14.888    0.083   -0.422   -1.229    0.083   -0.422    0.519   -0.102   -0.035    0.848    0.265
  17.50   15.482   15.484   15.490   -0.246   -0.426   -0.629   -0.246   -0.426    0.268    0.155    0.105    0.319    0.163
  18.00   15.049   15.049   15.051    0.091   -0.259   -1.062    0.091   -0.259    0.275   -0.097   -0.024    0.602    0.146
  18.50   15.330   15.333   15.352    0.269   -0.765   -0.781    0.269   -0.765    0.598   -0.210   -0.206    0.634    0.333
  19.00   15.471   15.472   15.477    0.199   -0.399   -0.640    0.199   -0.399    0.256   -0.128   -0.080    0.305    0.148
  19.50   15.317   15.318   15.318   -0.192   -0.052   -0.794   -0.192   -0.052    0.041    0.153    0.010    0.335    0.079
  20.00   15.510   15.521   15.524   -0.576   -0.337   -0.601   -0.576   -0.337    0.203    0.346    0.194    0.403    0.223
  20.50   15.824   15.835   15.837   -0.599   -0.241   -0.287   -0.599   -0.241    0.069    0.172    0.144    0.250    0.118
  21.00   16.263   16.285   16.287   -0.848   -0.291    0.151   -0.848   -0.291   -0.044   -0.128    0.247    0.414    0.141
  21.50   16.474   16.490   16.495   -0.734    0.396    0.363   -0.734    0.396    0.143   -0.266   -0.291    0.414    0.210
  22.00   16.394   16.404   16.404   -0.557    0.138    0.283   -0.557    0.138    0.039   -0.158   -0.077    0.204    0.090
  22.50   16.438   16.452   16.456   -0.687   -0.352    0.326   -0.687   -0.352   -0.115   -0.224    0.242    0.351    0.175
  23.00   16.512   16.523   16.524   -0.594   -0.201    0.401   -0.594   -0.201   -0.081   -0.238    0.120    0.277    0.139
  23.50   16.757   16.773   16.774    0.733    0.213    0.646    0.733    0.213    0.138    0.473    0.156    0.500    0.258
  24.00   16.740   16.750   16.756    0.570    0.462    0.629    0.570    0.462    0.291    0.358    0.263    0.467    0.266
  24.50   16.881   16.890   16.890    0.543    0.073    0.770    0.543    0.073    0.056    0.418    0.040    0.446    0.212
  25.00   16.550   16.550   16.550    0.023   -0.032    0.438    0.023   -0.032   -0.014    0.010   -0.001    0.097    0.009
  25.50   16.003   16.006   16.008   -0.317    0.191   -0.108   -0.317    0.191   -0.021    0.034   -0.060    0.074    0.036
  26.00   15.922   15.923   15.925   -0.163    0.298   -0.189   -0.163    0.298   -0.057    0.031   -0.049    0.076    0.040
  26.50   16.034   16.035   16.036    0.151   -0.237   -0.077    0.151   -0.237    0.018   -0.012   -0.036    0.042    0.021
  27.00   16.230   16.238   16.245    0.501   -0.480    0.119    0.501   -0.480   -0.057    0.060   -0.241    0.248    0.127
  27.50   15.607   15.611   15.611    0.326    0.167   -0.504    0.326    0.167   -0.084   -0.164    0.054    0.194    0.096
  28.00   15.590   15.591   15.592    0.123    0.230   -0.521    0.123    0.230   -0.120   -0.064    0.028    0.170    0.069
  28.50   15.290   15.295   15.300   -0.378    0.398   -0.821   -0.378    0.398   -0.326    0.310   -0.150    0.487    0.237
  29.00   15.357   15.357   15.369    0.004    0.599   -0.754    0.004    0.599   -0.452   -0.003    0.003    0.464    0.226
  29.50   15.191   15.193   15.202    0.259    0.518   -0.921    0.259    0.518   -0.477   -0.238    0.134    0.591    0.275
  30.00   15.487   15.490   15.490    0.335    0.053   -0.624    0.335    0.053   -0.033   -0.209    0.018    0.252    0.106
  30.50   15.058   15.062   15.063    0.339   -0.223   -1.053    0.339   -0.223    0.235   -0.357   -0.076    0.637    0.217
  31.00   15.109   15.122   15.122    0.644    0.012   -1.002    0.644    0.012   -0.012   -0.646    0.008    0.710    0.323
  31.50   15.169   15.177   15.182    0.482   -0.408   -0.942    0.482   -0.408    0.385   -0.454   -0.197    0.643    0.313
  32.00   15.441   15.454   15.465    0.633   -0.585   -0.670    0.633   -0.585    0.392   -0.424   -0.370    0.596    0.343
  32.50   15.334   15.360   15.366    0.886   -0.436   -0.777    0.886   -0.436    0.339   -0.688   -0.386    0.790    0.430
  33.00   15.327   15.334   15.335    0.480   -0.099   -0.784    0.480   -0.099    0.078   -0.377   -0.048    0.428    0.194
  33.50   15.575   15.601   15.610    0.890   -0.528   -0.536    0.890   -0.528    0.283   -0.477   -0.469    0.679    0.363
  34.00   14.901   14.908   14.909    0.473   -0.176   -1.210    0.473   -0.176    0.213   -0.573   -0.083    0.860    0.308
  34.50   15.288   15.295   15.296    0.451   -0.188   -0.823    0.451   -0.188    0.155   -0.372   -0.085    0.458    0.206
  35.00   14.780   14.780   14.782    0.037    0.223   -1.331    0.037    0.223   -0.297   -0.049    0.008    0.911    0.150
  35.50   15.075   15.075   15.076    0.083    0.167   -1.036    0.083    0.167   -0.173   -0.086    0.014    0.555    0.097
  36.00   15.462   15.475   15.479    0.629    0.371   -0.649    0.629    0.371   -0.241   -0.408    0.234    0.478    0.264
  36.50   15.204   15.215   15.216    0.574    0.171   -0.907    0.574    0.171   -0.156   -0.521    0.098    0.591    0.276
  37.00   15.514   15.514   15.515    0.087    0.138   -0.597    0.087    0.138   -0.082   -0.052    0.012    0.192    0.049
  37.50   15.204   15.220   15.221    0.698    0.151   -0.907    0.698    0.151   -0.137   -0.633    0.105    0.666    0.328
  38.00   15.605   15.627   15.627    0.827    0.006   -0.506    0.827    0.006   -0.003   -0.419    0.005    0.470    0.209
  38.50   15.814   15.838   15.838    0.875   -0.147   -0.298    0.875   -0.147    0.044   -0.260   -0.129    0.438    0.147
  39.00   16.070   16.075   16.077    0.395   -0.215   -0.041    0.395   -0.215    0.009   -0.016   -0.085    0.102    0.044
  39.50   15.658   15.670   15.680    0.613    0.556   -0.453    0.613    0.556   -0.252   -0.278    0.341    0.445    0.253
  40.00   15.608   15.608   15.620    0.064    0.607   -0.503    0.064    0.607   -0.306   -0.032    0.039    0.313    0.155
  40.50   15.615   15.619   15.623   -0.350    0.372   -0.496   -0.350    0.372   -0.185    0.174   -0.130    0.254    0.143
  41.00   15.938   15.957   15.966   -0.776    0.545   -0.173   -0.776    0.545   -0.094    0.134   -0.423    0.465    0.227
  41.50   16.284   16.290   16.304   -0.441    0.683    0.173   -0.441    0.683    0.118   -0.076   -0.301    0.345    0.166
  42.00   16.000   16.015   16.016   -0.688    0.114   -0.111   -0.688    0.114   -0.013    0.076   -0.079    0.249    0.055
  42.50   15.548   15.561   15.562   -0.629    0.193   -0.563   -0.629    0.193   -0.109    0.354   -0.122    0.375    0.195
  43.00   15.261   15.283   15.284   -0.821   -0.094   -0.850   -0.821   -0.094    0.080    0.697    0.077    0.702    0.353
  43.50   15.052   15.097   15.097   -1.159   -0.032   -1.059   -1.159   -0.032    0.034    1.228    0.038    1.233    0.614
  44.00   15.225   15.307   15.309   -1.587   -0.199   -0.886   -1.587   -0.199    0.176    1.406    0.316    1.672    0.726
  44.50   15.279   15.328   15.329   -1.218   -0.185   -0.832   -1.218   -0.185    0.154    1.013    0.225    1.105    0.524
  45.00   15.730   15.752   15.754   -0.835    0.233   -0.381   -0.835    0.233   -0.089    0.318   -0.194    0.449    0.192
  45.50   15.702   15.733   15.736   -0.989    0.304   -0.409   -0.989    0.304   -0.124    0.405   -0.300    0.619    0.260
  46.00   15.675   15.703   15.703   -0.931    0.019   -0.436   -0.931    0.019   -0.008    0.406   -0.018    0.529    0.203
  46.50   16.437   16.504   16.504   -1.489    0.061    0.326   -1.489    0.061    0.020   -0.485   -0.090    1.164    0.247
  47.00   16.230   16.272   16.281   -1.162   -0.543    0.119   -1.162   -0.543   -0.065   -0.138    0.631    0.830    0.324
  47.50   15.879   15.929   15.957   -1.259   -0.938   -0.232   -1.259   -0.938    0.217    0.292    1.181    1.260    0.618
  48.00   16.062   16.082   16.109   -0.812   -0.930   -0.049   -0.812   -0.930    0.046    0.040    0.755    0.764    0.379
  48.50   16.201   16.233   16.237   -1.032   -0.345    0.089   -1.032   -0.345   -0.031   -0.092    0.356    0.596    0.185
  49.00   15.812   15.856   15.869   -1.182   -0.637   -0.299   -1.182   -0.637    0.191    0.354    0.753    0.947    0.427
  49.50   15.781   15.835   15.846   -1.301   -0.605   -0.330   -1.301   -0.605    0.200    0.429    0.787    1.083    0.459
  50.00   15.566   15.596   15.606   -0.973   -0.550   -0.545   -0.973   -0.550    0.300    0.531    0.535    0.773    0.405
  50.50   15.350   15.387   15.395   -1.062   -0.514   -0.761   -1.062   -0.514    0.391    0.808    0.545    0.985    0.525
  51.00   15.698   15.701   15.704   -0.329   -0.288   -0.413   -0.329   -0.288    0.119    0.136    0.095    0.181    0.102
  51.50   16.128   16.145   16.163   -0.731   -0.762    0.017   -0.731   -0.762   -0.013   -0.012    0.557    0.557    0.279
  52.00   16.129   16.143   16.144   -0.668   -0.200    0.018   -0.668   -0.200   -0.004   -0.012    0.134    0.244    0.067
  52.50   15.595   15.624   15.627   -0.956   -0.301   -0.517   -0.956   -0.301    0.156    0.494    0.288    0.636    0.296
  53.00   15.884   15.919   15.941   -1.058   -0.836   -0.227   -1.058   -0.836    0.190    0.241    0.885    0.935    0.468
  53.50   15.870   15.912   15.955   -1.161   -1.165   -0.241   -1.161   -1.165    0.281    0.280    1.353    1.382    0.705
  54.00   15.877   15.891   15.892   -0.673   -0.135   -0.234   -0.673   -0.135    0.032    0.157    0.091    0.263    0.092
  54.50   16.203   16.234   16.239   -1.005   -0.373    0.092   -1.005   -0.373   -0.034   -0.093    0.375    0.579    0.194
  55.00   16.215   16.258   16.262   -1.179   -0.375    0.104   -1.179   -0.375   -0.039   -0.123    0.442    0.771    0.230
  55.50   16.323   16.336   16.350   -0.664   -0.679    0.212   -0.664   -0.679   -0.144   -0.140    0.451    0.473    0.247
  56.00   16.286   16.299   16.309   -0.650   -0.590    0.175   -0.650   -0.590   -0.103   -0.114    0.384    0.401    0.207
  56.50   16.657   16.670   16.677   -0.657   -0.459    0.546   -0.657   -0.459   -0.251   -0.359    0.302    0.470    0.266
  57.00   16.513   16.525   16.542   -0.617   -0.761    0.402   -0.617   -0.761   -0.306   -0.248    0.470    0.561    0.307
  57.50   16.432   16.449   16.464   -0.745   -0.705    0.321   -0.745   -0.705   -0.226   -0.239    0.526    0.578    0.310
  58.00   16.338   16.356   16.375   -0.769   -0.782    0.227   -0.769   -0.782   -0.177   -0.175    0.602    0.627    0.326
  58.50   16.634   16.637   16.644   -0.299   -0.493    0.523   -0.299   -0.493   -0.258   -0.156    0.147    0.303    0.168
  59.00   16.756   16.758   16.768   -0.253   -0.585    0.645   -0.253   -0.585   -0.377   -0.163    0.148    0.411    0.218
  59.50   16.428   16.432   16.438   -0.364   -0.419    0.317   -0.364   -0.419   -0.133   -0.115    0.152    0.204    0.116
  60.00   16.348   16.350   16.351   -0.265   -0.098    0.237   -0.265   -0.098   -0.023   -0.063    0.026    0.068    0.036
  60.50   16.289   16.289   16.292    0.009    0.316    0.178    0.009    0.316    0.056    0.002    0.003    0.066    0.028
  61.00   15.955   15.957   15.974   -0.267    0.732   -0.156   -0.267    0.732   -0.114    0.042   -0.196    0.316    0.115
  61.50   15.762   15.762   15.766   -0.149    0.317   -0.349   -0.149    0.317   -0.111    0.052   -0.047    0.122    0.066
  62.00   15.721   15.741   15.743   -0.775    0.295   -0.390   -0.775    0.295   -0.115    0.302   -0.228    0.420    0.198
  62.50   16.727   16.732   16.732   -0.407   -0.026    0.616   -0.407   -0.026   -0.016   -0.250    0.010    0.272    0.125
  63.00   16.720   16.752   16.753   -1.033    0.235    0.609   -1.033    0.235    0.143   -0.629   -0.243    0.747    0.345
  63.50   16.669   16.678   16.696   -0.530    0.788    0.558   -0.530    0.788    0.440   -0.296   -0.417    0.606    0.337
  64.00   16.502   16.508   16.533   -0.454    0.902    0.391   -0.454    0.902    0.353   -0.178   -0.410    0.587    0.285
  64.50   16.493   16.500   16.526   -0.498    0.918    0.382   -0.498    0.918    0.350   -0.190   -0.457    0.618    0.303
  65.00   16.540   16.564   16.576   -0.892    0.624    0.429   -0.892    0.624    0.268   -0.383   -0.557    0.685    0.363
  65.50   16.579   16.606   16.613   -0.943    0.480    0.468   -0.943    0.480    0.225   -0.441   -0.453    0.670    0.335
  66.00   16.832   16.864   16.864   -1.029    0.120    0.721   -1.029    0.120    0.087   -0.742   -0.124    0.796    0.379
  66.50   16.062   16.085   16.088   -0.849   -0.352   -0.049   -0.849   -0.352    0.017    0.042    0.299    0.424    0.151
  67.00   15.699   15.721   15.721   -0.831   -0.085   -0.412   -0.831   -0.085    0.035    0.342    0.071    0.434    0.176
  67.50   15.940   15.956   15.959   -0.726    0.285   -0.171   -0.726    0.285   -0.049    0.124   -0.207    0.318    0.123
  68.00   15.631   15.635   15.635   -0.348   -0.091   -0.480   -0.348   -0.091    0.044    0.167    0.032    0.180    0.088
  68.50   15.594   15.594   15.598   -0.054   -0.360   -0.517   -0.054   -0.360    0.186    0.028    0.019    0.200    0.095
  69.00   15.615   15.615   15.628    0.051   -0.637   -0.496    0.051   -0.637    0.316   -0.025   -0.033    0.327    0.159
  69.50   15.534   15.535   15.542   -0.149   -0.467   -0.577   -0.149   -0.467    0.269    0.086    0.070    0.286    0.146
  70.00   16.003   16.003   16.003   -0.000    0.023   -0.108   -0.000    0.023   -0.002    0.000   -0.000    0.006    0.001
  70.50   15.839   15.843   15.843   -0.358   -0.059   -0.272   -0.358   -0.059    0.016    0.097    0.021    0.103    0.050
  71.00   15.910   15.914   15.914   -0.372   -0.112   -0.201   -0.372   -0.112    0.023    0.075    0.042    0.096    0.044
  71.50   15.838   15.844   15.850   -0.452   -0.436   -0.273   -0.452   -0.436    0.119    0.124    0.197    0.235    0.131
  72.00   15.703   15.715   15.716   -0.634   -0.066   -0.408   -0.634   -0.066    0.027    0.259    0.042    0.286    0.132
  72.50   15.526   15.526   15.528   -0.070   -0.204   -0.585   -0.070   -0.204    0.120    0.041    0.014    0.194    0.064
  73.00   15.771   15.777   15.785   -0.439   -0.505   -0.340   -0.439   -0.505    0.172    0.149    0.222    0.282    0.159
  73.50   15.703   15.703   15.706    0.137   -0.271   -0.409    0.137   -0.271    0.111   -0.056   -0.037    0.129    0.065
  74.00   15.904   15.906   15.907    0.229   -0.125   -0.207    0.229   -0.125    0.026   -0.047   -0.029    0.055    0.030
  74.50   15.935   15.935   15.937    0.060   -0.252   -0.176    0.060   -0.252    0.044   -0.011   -0.015    0.049    0.024
  75.00   15.879   15.882   15.882    0.305    0.082   -0.232    0.305    0.082   -0.019   -0.071    0.025    0.077    0.039
  75.50   16.535   16.535   16.539    0.076   -0.366    0.424    0.076   -0.366   -0.155    0.032   -0.028    0.160    0.080
  76.00   16.540   16.543   16.545    0.313   -0.308    0.428    0.313   -0.308   -0.132    0.134   -0.096    0.188    0.106
  76.50   16.617   16.619   16.619    0.254    0.012    0.506    0.254    0.012    0.006    0.129    0.003    0.160    0.064
  77.00   16.365   16.365   16.365    0.100    0.131    0.253    0.100    0.131    0.033    0.025    0.013    0.046    0.022
  77.50   16.392   16.392   16.393    0.052    0.120    0.281    0.052    0.120    0.034    0.015    0.006    0.048    0.019
  78.00   16.224   16.228   16.229   -0.346   -0.246    0.113   -0.346   -0.246   -0.028   -0.039    0.085    0.097    0.049
  78.50   16.399   16.401   16.402   -0.236   -0.175    0.288   -0.236   -0.175   -0.051   -0.068    0.041    0.085    0.047
  79.00   16.378   16.378   16.379   -0.126   -0.097    0.267   -0.126   -0.097   -0.026   -0.034    0.012    0.048    0.022
  79.50   16.039   16.039   16.039    0.012    0.061   -0.072    0.012    0.061   -0.004   -0.001    0.001    0.005    0.002
  80.00   15.745   15.745   15.746   -0.024    0.132   -0.366   -0.024    0.132   -0.048    0.009   -0.003    0.076    0.025
  80.50   16.164   16.167   16.172   -0.294   -0.391    0.053   -0.294   -0.391   -0.021   -0.016    0.115    0.121    0.059
  81.00   15.948   15.948   15.956    0.010   -0.505   -0.163    0.010   -0.505    0.082   -0.002   -0.005    0.141    0.041
  81.50   16.323   16.325   16.325   -0.234   -0.147    0.212   -0.234   -0.147   -0.031   -0.050    0.035    0.061    0.034
  82.00   16.002   16.004   16.008   -0.225   -0.379   -0.109   -0.225   -0.379    0.041    0.025    0.085    0.103    0.049
  82.50   16.479   16.479   16.480   -0.031    0.115    0.368   -0.031    0.115    0.042   -0.011   -0.004    0.075    0.022
  83.00   16.100   16.106   16.106    0.452   -0.049   -0.011    0.452   -0.049    0.001   -0.005   -0.022    0.103    0.011
  83.50   15.562   15.566   15.568    0.330    0.254   -0.549    0.330    0.254   -0.139   -0.181    0.084    0.237    0.122
  84.00   15.630   15.631   15.633    0.205    0.203   -0.481    0.205    0.203   -0.098   -0.099    0.042    0.158    0.073
  84.50   15.573   15.574   15.576   -0.154    0.255   -0.538   -0.154    0.255   -0.137    0.083   -0.039    0.189    0.082
  85.00   15.337   15.340   15.340   -0.305    0.092   -0.774   -0.305    0.092   -0.071    0.236   -0.028    0.350    0.124
  85.50   15.463   15.464   15.464   -0.126   -0.131   -0.648   -0.126   -0.131    0.085    0.082    0.017    0.226    0.059
  86.00   15.631   15.644   15.644   -0.634    0.055   -0.480   -0.634    0.055   -0.026    0.304   -0.035    0.318    0.154
  86.50   15.517   15.521   15.523   -0.338   -0.251   -0.594   -0.338   -0.251    0.149    0.201    0.085    0.265    0.132
  87.00   15.189   15.195   15.196   -0.433    0.148   -0.922   -0.433    0.148   -0.136    0.399   -0.064    0.530    0.213
  87.50   15.541   15.545   15.545   -0.340    0.131   -0.570   -0.340    0.131   -0.075    0.194   -0.044    0.229    0.106
  88.00   15.735   15.742   15.742   -0.456   -0.078   -0.376   -0.456   -0.078    0.029    0.171    0.036    0.178    0.089
  88.50   15.524   15.528   15.528   -0.357   -0.018   -0.587   -0.357   -0.018    0.011    0.210    0.006    0.236    0.105
  89.00   15.520   15.520   15.521   -0.091    0.113   -0.591   -0.091    0.113   -0.067    0.054   -0.010    0.185    0.043
  89.50   15.342   15.342   15.345    0.032    0.320   -0.769    0.032    0.320   -0.247   -0.025    0.010    0.348    0.124
  90.00   15.110   15.113   15.113    0.324   -0.025   -1.001    0.324   -0.025    0.025   -0.324   -0.008    0.554    0.163
  90.50   14.645   14.645   14.646    0.149    0.058   -1.466    0.149    0.058   -0.086   -0.219    0.009    1.088    0.118
  91.00   14.854   14.854   14.870    0.088    0.698   -1.257    0.088    0.698   -0.878   -0.111    0.061    1.038    0.443
  91.50   14.875   14.876   14.880   -0.095    0.335   -1.236   -0.095    0.335   -0.414    0.117   -0.032    0.824    0.215
  92.00   15.059   15.062   15.063   -0.338   -0.106   -1.052   -0.338   -0.106    0.112    0.355    0.036    0.616    0.187
  92.50   15.236   15.251   15.253   -0.672    0.256   -0.875   -0.672    0.256   -0.224    0.588   -0.172    0.641    0.326
  93.00   15.067   15.067   15.068    0.024    0.126   -1.044    0.024    0.126   -0.131   -0.025    0.003    0.553    0.067
  93.50   15.325   15.326   15.327    0.179    0.161   -0.786    0.179    0.161   -0.127   -0.141    0.029    0.338    0.096
  94.00   15.553   15.556   15.556   -0.301    0.030   -0.558   -0.301    0.030   -0.017    0.168   -0.009    0.201    0.085
  94.50   15.380   15.380   15.385    0.018   -0.380   -0.731    0.018   -0.380    0.278   -0.013   -0.007    0.339    0.139
  95.00   15.329   15.331   15.335   -0.205   -0.358   -0.782   -0.205   -0.358    0.280    0.160    0.074    0.391    0.166
  95.50   15.157   15.162   15.162   -0.365    0.041   -0.954   -0.365    0.041   -0.039    0.348   -0.015    0.522    0.175
  96.00   15.522   15.527   15.528   -0.415   -0.110   -0.589   -0.415   -0.110    0.065    0.244    0.045    0.266    0.128
  96.50   15.543   15.549   15.563   -0.434    0.668   -0.569   -0.434    0.668   -0.380    0.247   -0.290    0.479    0.269
  97.00   15.071   15.071   15.080   -0.011    0.534   -1.041   -0.011    0.534   -0.556    0.012   -0.006    0.684    0.278
  97.50   15.245   15.245   15.260   -0.089    0.675   -0.866   -0.089    0.675   -0.585    0.077   -0.060    0.607    0.297
  98.00   15.176   15.176   15.188    0.087    0.618   -0.936    0.087    0.618   -0.578   -0.082    0.054    0.632    0.293
  98.50   15.356   15.356   15.361    0.092    0.397   -0.755    0.092    0.397   -0.299   -0.070    0.037    0.368    0.155
  99.00   15.487   15.489   15.489    0.220   -0.063   -0.624    0.220   -0.063    0.039   -0.137   -0.014    0.221    0.072
  99.50   15.541   15.543   15.544   -0.237   -0.187   -0.570   -0.237   -0.187    0.106    0.135    0.044    0.208    0.089
 100.00   15.365   15.366   15.369   -0.126    0.306   -0.746   -0.126    0.306   -0.229    0.094   -0.039    0.333    0.125
 100.50   15.150   15.154   15.167   -0.333    0.622   -0.961   -0.333    0.622   -0.598    0.320   -0.207    0.711    0.354
 101.00   15.018   15.029   15.031   -0.576    0.231   -1.093   -0.576    0.231   -0.252    0.629   -0.133    0.790    0.346
 101.50   15.059   15.076   15.082   -0.714    0.407   -1.052   -0.714    0.407   -0.428    0.751   -0.290    0.891    0.456
 102.00   15.454   15.466   15.466   -0.618    0.017   -0.657   -0.618    0.017   -0.011    0.406   -0.011    0.407    0.203
 102.50   15.990   16.003   16.003   -0.641   -0.007   -0.121   -0.641   -0.007    0.001    0.077    0.005    0.213    0.039
 103.00   16.205   16.227   16.228   -0.833   -0.189    0.094   -0.833   -0.189   -0.018   -0.079    0.157    0.369    0.088
 103.50   16.043   16.066   16.067   -0.866    0.142   -0.068   -0.866    0.142   -0.010    0.059   -0.123    0.387    0.068
 104.00   16.102   16.120   16.121   -0.757    0.189   -0.009   -0.757    0.189   -0.002    0.007   -0.143    0.304    0.072
 104.50   15.939   15.952   15.960   -0.625    0.516   -0.172   -0.625    0.516   -0.089    0.107   -0.322    0.343    0.176
 105.00   15.702   15.711   15.714   -0.536    0.295   -0.409   -0.536    0.295   -0.121    0.219   -0.158    0.271    0.148
 105.50   15.814   15.821   15.821   -0.498    0.034   -0.298   -0.498    0.034   -0.010    0.148   -0.017    0.169    0.075
 106.00   16.253   16.257   16.257   -0.376    0.097    0.142   -0.376    0.097    0.014   -0.053   -0.036    0.085    0.033
 106.50   15.783   15.814   15.814   -0.995    0.085   -0.328   -0.995    0.085   -0.028    0.327   -0.084    0.553    0.169
 107.00   15.491   15.524   15.525   -1.014   -0.203   -0.620   -1.014   -0.203    0.126    0.629    0.206    0.727    0.337
 107.50   15.281   15.294   15.297   -0.624   -0.282   -0.830   -0.624   -0.282    0.234    0.518    0.176    0.579    0.298
 108.00   15.428   15.429   15.431   -0.200   -0.238   -0.683   -0.200   -0.238    0.162    0.137    0.048    0.282    0.109
 108.50   15.041   15.042   15.043   -0.153   -0.171   -1.070   -0.153   -0.171    0.183    0.163    0.026    0.598    0.123
 109.00   15.298   15.298   15.301   -0.060    0.295   -0.813   -0.060    0.295   -0.240    0.049   -0.018    0.376    0.123
 109.50   15.609   15.610   15.611   -0.142   -0.238   -0.502   -0.142   -0.238    0.120    0.071    0.034    0.165    0.072
 110.00   16.354   16.354   16.356    0.039    0.230    0.243    0.039    0.230    0.056    0.010    0.009    0.057    0.029
 110.50   16.434   16.436   16.436   -0.271    0.089    0.323   -0.271    0.089    0.029   -0.087   -0.024    0.093    0.048
 111.00   16.400   16.420   16.420   -0.812   -0.102    0.289   -0.812   -0.102   -0.029   -0.235    0.082    0.377    0.125
 111.50   16.798   16.814   16.814   -0.741    0.069    0.686   -0.741    0.069    0.048   -0.509   -0.051    0.513    0.257
 112.00   16.829   16.831   16.833   -0.239    0.257    0.718   -0.239    0.257    0.185   -0.172   -0.062    0.319    0.130
 112.50   17.126   17.128   17.135   -0.253    0.492    1.015   -0.253    0.492    0.499   -0.257   -0.125    0.668    0.288
 113.00   17.192   17.193   17.195    0.139    0.253    1.081    0.139    0.253    0.274    0.151    0.035    0.626    0.157
 113.50   17.316   17.316   17.317    0.075    0.108    1.205    0.075    0.108    0.131    0.090    0.008    0.735    0.079
 114.00   16.977   16.978   16.978   -0.135   -0.058    0.866   -0.135   -0.058   -0.051   -0.117    0.008    0.386    0.064
 114.50   16.805   16.807   16.809   -0.240   -0.287    0.694   -0.240   -0.287   -0.199   -0.167    0.069    0.311    0.134
 115.00   16.821   16.821   16.823    0.001   -0.303    0.709    0.001   -0.303   -0.215    0.001   -0.000    0.298    0.108
 115.50   16.919   16.919   16.919   -0.010    0.030    0.807   -0.010    0.030    0.024   -0.008   -0.000    0.326    0.013
 116.00   17.084   17.086   17.089   -0.283   -0.286    0.973   -0.283   -0.286   -0.279   -0.275    0.081    0.554    0.200
 116.50   17.030   17.030   17.035    0.073   -0.405    0.919    0.073   -0.405   -0.372    0.067   -0.030    0.507    0.190
 117.00   16.734   16.734   16.734    0.136   -0.005    0.623    0.136   -0.005   -0.003    0.085   -0.001    0.203    0.042
 117.50   16.487   16.487   16.488   -0.045   -0.154    0.376   -0.045   -0.154   -0.058   -0.017    0.007    0.084    0.030
 118.00   16.420   16.422   16.427   -0.221   -0.426    0.309   -0.221   -0.426   -0.132   -0.068    0.094    0.163    0.088
 118.50   16.174   16.184   16.191   -0.568   -0.459    0.063   -0.568   -0.459   -0.029   -0.036    0.260    0.268    0.132